
  EPA STORM WATER MANAGEMENT MODEL - VERSION 5.1 (Build 5.1.012)
  --------------------------------------------------------------

  
  *********************************************************
  NOTE: The summary statistics displayed in this report are
  based on results found at every computational time step,  
  not just on results from each reporting time step.
  *********************************************************
  
  ****************
  Analysis Options
  ****************
  Flow Units ............... CFS
  Process Models:
    Rainfall/Runoff ........ YES
    RDII ................... NO
    Snowmelt ............... NO
    Groundwater ............ NO
    Flow Routing ........... YES
    Ponding Allowed ........ NO
    Water Quality .......... NO
  Infiltration Method ...... MODIFIED_GREEN_AMPT
  Flow Routing Method ...... KINWAVE
  Starting Date ............ 09/19/2017 00:00:00
  Ending Date .............. 09/19/2017 12:00:00
  Antecedent Dry Days ...... 0.0
  Report Time Step ......... 00:15:00
  Wet Time Step ............ 00:05:00
  Dry Time Step ............ 01:00:00
  Routing Time Step ........ 60.00 sec
  
  
  **************************        Volume         Depth
  Runoff Quantity Continuity     acre-feet        inches
  **************************     ---------       -------
  Total Precipitation ......        50.755         3.000
  Evaporation Loss .........         0.000         0.000
  Infiltration Loss ........        31.225         1.846
  Surface Runoff ...........        19.133         1.131
  Final Storage ............         0.404         0.024
  Continuity Error (%) .....        -0.013
  
  
  **************************        Volume        Volume
  Flow Routing Continuity        acre-feet      10^6 gal
  **************************     ---------     ---------
  Dry Weather Inflow .......         0.000         0.000
  Wet Weather Inflow .......        19.131         6.234
  Groundwater Inflow .......         0.000         0.000
  RDII Inflow ..............         0.000         0.000
  External Inflow ..........         0.000         0.000
  External Outflow .........         2.566         0.836
  Flooding Loss ............        16.567         5.399
  Evaporation Loss .........         0.000         0.000
  Exfiltration Loss ........         0.000         0.000
  Initial Stored Volume ....         0.000         0.000
  Final Stored Volume ......         0.003         0.001
  Continuity Error (%) .....        -0.024
  
  
  ********************************
  Highest Flow Instability Indexes
  ********************************
  All links are stable.
  
  
  *************************
  Routing Time Step Summary
  *************************
  Minimum Time Step           :    60.00 sec
  Average Time Step           :    60.00 sec
  Maximum Time Step           :    60.00 sec
  Percent in Steady State     :     0.00
  Average Iterations per Step :     2.28
  Percent Not Converging      :     0.00
  
  
  ***************************
  Subcatchment Runoff Summary
  ***************************
  
  --------------------------------------------------------------------------------------------------------
                            Total      Total      Total      Total      Total       Total     Peak  Runoff
                           Precip      Runon       Evap      Infil     Runoff      Runoff   Runoff   Coeff
  Subcatchment                 in         in         in         in         in    10^6 gal      CFS
  --------------------------------------------------------------------------------------------------------
  S1                         3.00       0.00       0.00       1.50       1.47        2.78    32.26   0.488
  S2                         3.00       0.00       0.00       1.50       1.47        1.58    19.38   0.491
  S3                         3.00       0.00       0.00       2.25       0.74        1.87    22.68   0.245
  
  
  ******************
  Node Depth Summary
  ******************
  
  ---------------------------------------------------------------------------------
                                 Average  Maximum  Maximum  Time of Max    Reported
                                   Depth    Depth      HGL   Occurrence   Max Depth
  Node                 Type         Feet     Feet     Feet  days hr:min        Feet
  ---------------------------------------------------------------------------------
  J1                   JUNCTION     1.79     4.00   100.00     0  01:37        4.00
  J2                   JUNCTION     2.17     4.00    94.00     0  01:20        4.00
  J3                   JUNCTION     1.65     4.00    97.00     0  01:38        4.00
  J4                   JUNCTION     2.22     4.00    92.00     0  01:19        4.00
  Out1                 OUTFALL      0.66     1.00    86.00     0  01:21        1.00
  
  
  *******************
  Node Inflow Summary
  *******************
  
  -------------------------------------------------------------------------------------------------
                                  Maximum  Maximum                  Lateral       Total        Flow
                                  Lateral    Total  Time of Max      Inflow      Inflow     Balance
                                   Inflow   Inflow   Occurrence      Volume      Volume       Error
  Node                 Type           CFS      CFS  days hr:min    10^6 gal    10^6 gal     Percent
  -------------------------------------------------------------------------------------------------
  J1                   JUNCTION     32.26    32.26     0  03:01        2.78        2.78      -0.000
  J2                   JUNCTION     19.38    25.05     0  03:01        1.58        2.54       0.000
  J3                   JUNCTION     22.68    22.68     0  03:01        1.87        1.87       0.000
  J4                   JUNCTION      0.00     8.81     0  06:08           0        1.46       0.000
  Out1                 OUTFALL       0.00     4.28     0  07:27           0       0.836       0.000
  
  
  *********************
  Node Flooding Summary
  *********************
  
  Flooding refers to all water that overflows a node, whether it ponds or not.
  --------------------------------------------------------------------------
                                                             Total   Maximum
                                 Maximum   Time of Max       Flood    Ponded
                        Hours       Rate    Occurrence      Volume    Volume
  Node                 Flooded       CFS   days hr:min    10^6 gal  1000 ft3
  --------------------------------------------------------------------------
  J1                      4.90     26.52      0  03:01       1.821     0.000
  J2                      6.05     21.76      0  03:01       1.873     0.000
  J3                      4.55     17.47      0  03:01       1.080     0.000
  J4                      6.20      4.73      0  06:09       0.624     0.000
  
  
  ***********************
  Outfall Loading Summary
  ***********************
  
  -----------------------------------------------------------
                         Flow       Avg       Max       Total
                         Freq      Flow      Flow      Volume
  Outfall Node           Pcnt       CFS       CFS    10^6 gal
  -----------------------------------------------------------
  Out1                  90.97      2.84      4.28       0.836
  -----------------------------------------------------------
  System                90.97      2.84      4.28       0.836
  
  
  ********************
  Link Flow Summary
  ********************
  
  -----------------------------------------------------------------------------
                                 Maximum  Time of Max   Maximum    Max/    Max/
                                  |Flow|   Occurrence   |Veloc|    Full    Full
  Link                 Type          CFS  days hr:min    ft/sec    Flow   Depth
  -----------------------------------------------------------------------------
  C1                   CONDUIT      6.08     0  06:27      8.40    1.07    1.00
  C2                   CONDUIT      3.51     0  07:22      4.88    1.07    1.00
  C3                   CONDUIT      4.28     0  07:27      5.94    1.07    1.00
  C4                   CONDUIT      5.53     0  06:08      7.69    1.07    1.00
  
  
  *************************
  Conduit Surcharge Summary
  *************************
  
  ----------------------------------------------------------------------------
                                                           Hours        Hours 
                         --------- Hours Full --------   Above Full   Capacity
  Conduit                Both Ends  Upstream  Dnstream   Normal Flow   Limited
  ----------------------------------------------------------------------------
  C1                          4.88      4.88      4.88      4.88         4.88
  C2                          6.03      6.03      6.03      6.05         6.03
  C3                          6.18      6.18      6.18      0.10         6.18
  C4                          4.53      4.53      4.53      4.53         4.53
  

  Analysis begun on:  Tue Sep 19 11:47:10 2017
  Analysis ended on:  Tue Sep 19 11:47:10 2017
  Total elapsed time: < 1 sec