
  EPA STORM WATER MANAGEMENT MODEL - VERSION 5.1 (Build 5.1.012)
  --------------------------------------------------------------

  
  *********************************************************
  NOTE: The summary statistics displayed in this report are
  based on results found at every computational time step,  
  not just on results from each reporting time step.
  *********************************************************
  
  ****************
  Analysis Options
  ****************
  Flow Units ............... CFS
  Process Models:
    Rainfall/Runoff ........ YES
    RDII ................... NO
    Snowmelt ............... NO
    Groundwater ............ NO
    Flow Routing ........... YES
    Ponding Allowed ........ NO
    Water Quality .......... NO
  Infiltration Method ...... MODIFIED_GREEN_AMPT
  Flow Routing Method ...... DYNWAVE
  Starting Date ............ 02/06/2018 00:00:00
  Ending Date .............. 02/06/2018 16:00:00
  Antecedent Dry Days ...... 0.0
  Report Time Step ......... 00:15:00
  Wet Time Step ............ 00:05:00
  Dry Time Step ............ 01:00:00
  Routing Time Step ........ 10.00 sec
  Variable Time Step ....... YES
  Maximum Trials ........... 8
  Number of Threads ........ 1
  Head Tolerance ........... 0.005000 ft
  
  
  **************************        Volume         Depth
  Runoff Quantity Continuity     acre-feet        inches
  **************************     ---------       -------
  Total Precipitation ......         8.896         1.525
  Evaporation Loss .........         0.000         0.000
  Infiltration Loss ........         4.448         0.762
  Surface Runoff ...........         4.265         0.731
  Final Storage ............         0.184         0.032
  Continuity Error (%) .....        -0.016
  
  
  **************************        Volume        Volume
  Flow Routing Continuity        acre-feet      10^6 gal
  **************************     ---------     ---------
  Dry Weather Inflow .......         0.000         0.000
  Wet Weather Inflow .......         4.265         1.390
  Groundwater Inflow .......         0.000         0.000
  RDII Inflow ..............         0.000         0.000
  External Inflow ..........         0.000         0.000
  External Outflow .........         3.206         1.045
  Flooding Loss ............         0.044         0.014
  Evaporation Loss .........         0.000         0.000
  Exfiltration Loss ........         0.000         0.000
  Initial Stored Volume ....         0.689         0.224
  Final Stored Volume ......         1.706         0.556
  Continuity Error (%) .....        -0.040
  
  
  ***************************
  Time-Step Critical Elements
  ***************************
  None
  
  
  ********************************
  Highest Flow Instability Indexes
  ********************************
  All links are stable.
  
  
  *************************
  Routing Time Step Summary
  *************************
  Minimum Time Step           :     5.49 sec
  Average Time Step           :    10.00 sec
  Maximum Time Step           :    10.00 sec
  Percent in Steady State     :     0.00
  Average Iterations per Step :     2.01
  Percent Not Converging      :     0.05
  
  
  ***************************
  Subcatchment Runoff Summary
  ***************************
  
  --------------------------------------------------------------------------------------------------------
                            Total      Total      Total      Total      Total       Total     Peak  Runoff
                           Precip      Runon       Evap      Infil     Runoff      Runoff   Runoff   Coeff
  Subcatchment                 in         in         in         in         in    10^6 gal      CFS
  --------------------------------------------------------------------------------------------------------
  S1                         1.52       0.00       0.00       0.76       0.73        1.39    14.35   0.479
  
  
  ******************
  Node Depth Summary
  ******************
  
  ---------------------------------------------------------------------------------
                                 Average  Maximum  Maximum  Time of Max    Reported
                                   Depth    Depth      HGL   Occurrence   Max Depth
  Node                 Type         Feet     Feet     Feet  days hr:min        Feet
  ---------------------------------------------------------------------------------
  J1                   JUNCTION     0.48     1.55    97.55     0  06:01        1.54
  J2                   JUNCTION     1.37     2.55    92.55     0  09:27        2.55
  J3                   JUNCTION     1.31     2.00    90.00     0  08:00        2.00
  Out1                 OUTFALL      0.63     0.80    87.80     0  08:06        0.80
  St1                  STORAGE      1.88     3.36    93.36     0  09:27        3.36
  
  
  *******************
  Node Inflow Summary
  *******************
  
  -------------------------------------------------------------------------------------------------
                                  Maximum  Maximum                  Lateral       Total        Flow
                                  Lateral    Total  Time of Max      Inflow      Inflow     Balance
                                   Inflow   Inflow   Occurrence      Volume      Volume       Error
  Node                 Type           CFS      CFS  days hr:min    10^6 gal    10^6 gal     Percent
  -------------------------------------------------------------------------------------------------
  J1                   JUNCTION     14.35    14.35     0  06:00        1.39        1.39       0.021
  J2                   JUNCTION      0.00     3.70     0  09:27           0        1.06       0.122
  J3                   JUNCTION      0.00     3.70     0  09:27           0        1.06       0.248
  Out1                 OUTFALL       0.00     3.47     0  08:06           0        1.04       0.000
  St1                  STORAGE       0.00    14.35     0  06:02           0        1.61      -0.001
  
  
  **********************
  Node Surcharge Summary
  **********************
  
  Surcharging occurs when water rises above the top of the highest conduit.
  ---------------------------------------------------------------------
                                               Max. Height   Min. Depth
                                   Hours       Above Crown    Below Rim
  Node                 Type      Surcharged           Feet         Feet
  ---------------------------------------------------------------------
  J2                   JUNCTION        9.69          1.547        2.453
  J3                   JUNCTION       10.09          1.000        0.000
  
  
  *********************
  Node Flooding Summary
  *********************
  
  Flooding refers to all water that overflows a node, whether it ponds or not.
  --------------------------------------------------------------------------
                                                             Total   Maximum
                                 Maximum   Time of Max       Flood    Ponded
                        Hours       Rate    Occurrence      Volume     Depth
  Node                 Flooded       CFS   days hr:min    10^6 gal      Feet
  --------------------------------------------------------------------------
  J3                      3.76      0.23      0  09:27       0.014     0.000
  
  
  **********************
  Storage Volume Summary
  **********************
  
  --------------------------------------------------------------------------------------------------
                         Average     Avg  Evap Exfil       Maximum     Max    Time of Max    Maximum
                          Volume    Pcnt  Pcnt  Pcnt        Volume    Pcnt     Occurrence    Outflow
  Storage Unit          1000 ft3    Full  Loss  Loss      1000 ft3    Full    days hr:min        CFS
  --------------------------------------------------------------------------------------------------
  St1                     75.376      38     0     0       134.446      67       0  09:27       3.70
  
  
  ***********************
  Outfall Loading Summary
  ***********************
  
  -----------------------------------------------------------
                         Flow       Avg       Max       Total
                         Freq      Flow      Flow      Volume
  Outfall Node           Pcnt       CFS       CFS    10^6 gal
  -----------------------------------------------------------
  Out1                  99.95      2.43      3.47       1.045
  -----------------------------------------------------------
  System                99.95      2.43      3.47       1.045
  
  
  ********************
  Link Flow Summary
  ********************
  
  -----------------------------------------------------------------------------
                                 Maximum  Time of Max   Maximum    Max/    Max/
                                  |Flow|   Occurrence   |Veloc|    Full    Full
  Link                 Type          CFS  days hr:min    ft/sec    Flow   Depth
  -----------------------------------------------------------------------------
  C1                   CONDUIT     14.35     0  06:02      5.85    0.98    0.73
  C2                   CONDUIT      3.70     0  09:27      5.41    1.13    1.00
  C3                   CONDUIT      3.47     0  08:06      4.67    1.50    0.90
  R1                   ORIFICE      3.70     0  09:27                          
  
  
  ***************************
  Flow Classification Summary
  ***************************
  
  -------------------------------------------------------------------------------------
                      Adjusted    ---------- Fraction of Time in Flow Class ---------- 
                       /Actual         Up    Down  Sub   Sup   Up    Down  Norm  Inlet 
  Conduit               Length    Dry  Dry   Dry   Crit  Crit  Crit  Crit  Ltd   Ctrl  
  -------------------------------------------------------------------------------------
  C1                      1.00   0.25  0.00  0.00  0.00  0.00  0.00  0.75  0.00  0.00
  C2                      1.00   0.00  0.00  0.00  0.82  0.18  0.00  0.00  0.37  0.00
  C3                      1.00   0.00  0.00  0.00  1.00  0.00  0.00  0.00  0.00  0.00
  
  
  *************************
  Conduit Surcharge Summary
  *************************
  
  ----------------------------------------------------------------------------
                                                           Hours        Hours 
                         --------- Hours Full --------   Above Full   Capacity
  Conduit                Both Ends  Upstream  Dnstream   Normal Flow   Limited
  ----------------------------------------------------------------------------
  C2                          9.69      9.69     10.09      6.74         6.74
  C3                          0.01     10.09      0.01     10.18         0.01
  
  
  ********************
  Subcatchment Results
  ********************
  
  <<< Subcatchment S1 >>>
  ---------------------------------------------------
  Date        Time        Precip.    Losses    Runoff
                            in/hr     in/hr       CFS
  ---------------------------------------------------
   02/06/2018 00:15:00      0.000     0.000    0.0000
   02/06/2018 00:30:00      0.000     0.000    0.0000
   02/06/2018 00:45:00      0.000     0.000    0.0000
   02/06/2018 01:00:00      0.000     0.000    0.0000
   02/06/2018 01:15:00      0.000     0.000    0.0000
   02/06/2018 01:30:00      0.000     0.000    0.0000
   02/06/2018 01:45:00      0.000     0.000    0.0000
   02/06/2018 02:00:00      0.000     0.000    0.0000
   02/06/2018 02:15:00      0.000     0.000    0.0000
   02/06/2018 02:30:00      0.000     0.000    0.0000
   02/06/2018 02:45:00      0.000     0.000    0.0000
   02/06/2018 03:00:00      0.000     0.000    0.0000
   02/06/2018 03:15:00      0.000     0.000    0.0000
   02/06/2018 03:30:00      0.000     0.000    0.0000
   02/06/2018 03:45:00      0.000     0.000    0.0000
   02/06/2018 04:00:00      0.250     0.125    0.0000
   02/06/2018 04:15:00      0.250     0.125    0.1912
   02/06/2018 04:30:00      0.250     0.125    1.0842
   02/06/2018 04:45:00      0.250     0.125    2.3486
   02/06/2018 05:00:00      0.500     0.250    3.6614
   02/06/2018 05:15:00      0.500     0.250    7.1546
   02/06/2018 05:30:00      0.500     0.250   10.2508
   02/06/2018 05:45:00      0.500     0.250   12.6421
   02/06/2018 06:00:00      0.400     0.200   14.3490
   02/06/2018 06:15:00      0.400     0.200   14.2683
   02/06/2018 06:30:00      0.400     0.200   14.2158
   02/06/2018 06:45:00      0.400     0.200   14.1816
   02/06/2018 07:00:00      0.250     0.125   14.1593
   02/06/2018 07:15:00      0.250     0.125   12.3546
   02/06/2018 07:30:00      0.250     0.125   11.2045
   02/06/2018 07:45:00      0.250     0.125   10.4498
   02/06/2018 08:00:00      0.125     0.062    9.9442
   02/06/2018 08:15:00      0.125     0.062    8.2903
   02/06/2018 08:30:00      0.125     0.062    7.1918
   02/06/2018 08:45:00      0.125     0.062    6.4374
   02/06/2018 09:00:00      0.000     0.000    5.9057
   02/06/2018 09:15:00      0.000     0.000    4.4510
   02/06/2018 09:30:00      0.000     0.000    3.4525
   02/06/2018 09:45:00      0.000     0.000    2.7415
   02/06/2018 10:00:00      0.000     0.000    2.2198
   02/06/2018 10:15:00      0.000     0.000    1.8271
   02/06/2018 10:30:00      0.000     0.000    1.5253
   02/06/2018 10:45:00      0.000     0.000    1.2888
   02/06/2018 11:00:00      0.000     0.000    1.1007
   02/06/2018 11:15:00      0.000     0.000    0.9489
   02/06/2018 11:30:00      0.000     0.000    0.8249
   02/06/2018 11:45:00      0.000     0.000    0.7224
   02/06/2018 12:00:00      0.000     0.000    0.6369
   02/06/2018 12:15:00      0.000     0.000    0.5649
   02/06/2018 12:30:00      0.000     0.000    0.5038
   02/06/2018 12:45:00      0.000     0.000    0.4516
   02/06/2018 13:00:00      0.000     0.000    0.4066
   02/06/2018 13:15:00      0.000     0.000    0.3677
   02/06/2018 13:30:00      0.000     0.000    0.3338
   02/06/2018 13:45:00      0.000     0.000    0.3041
   02/06/2018 14:00:00      0.000     0.000    0.2780
   02/06/2018 14:15:00      0.000     0.000    0.2549
   02/06/2018 14:30:00      0.000     0.000    0.2345
   02/06/2018 14:45:00      0.000     0.000    0.2162
   02/06/2018 15:00:00      0.000     0.000    0.1999
   02/06/2018 15:15:00      0.000     0.000    0.1852
   02/06/2018 15:30:00      0.000     0.000    0.1720
   02/06/2018 15:45:00      0.000     0.000    0.1601
  
  
  ************
  Node Results
  ************
  
  <<< Node J1 >>>
  ----------------------------------------------------------------
                           Inflow  Flooding     Depth      Head
  Date        Time            CFS       CFS      feet      feet
  ----------------------------------------------------------------
   02/06/2018 00:15:00      0.000     0.000     0.000    96.000
   02/06/2018 00:30:00      0.000     0.000     0.000    96.000
   02/06/2018 00:45:00      0.000     0.000     0.000    96.000
   02/06/2018 01:00:00      0.000     0.000     0.000    96.000
   02/06/2018 01:15:00      0.000     0.000     0.000    96.000
   02/06/2018 01:30:00      0.000     0.000     0.000    96.000
   02/06/2018 01:45:00      0.000     0.000     0.000    96.000
   02/06/2018 02:00:00      0.000     0.000     0.000    96.000
   02/06/2018 02:15:00      0.000     0.000     0.000    96.000
   02/06/2018 02:30:00      0.000     0.000     0.000    96.000
   02/06/2018 02:45:00      0.000     0.000     0.000    96.000
   02/06/2018 03:00:00      0.000     0.000     0.000    96.000
   02/06/2018 03:15:00      0.000     0.000     0.000    96.000
   02/06/2018 03:30:00      0.000     0.000     0.000    96.000
   02/06/2018 03:45:00      0.000     0.000     0.000    96.000
   02/06/2018 04:00:00      0.000     0.000     0.000    96.000
   02/06/2018 04:15:00      0.188     0.000     0.131    96.131
   02/06/2018 04:30:00      1.073     0.000     0.348    96.348
   02/06/2018 04:45:00      2.335     0.000     0.528    96.528
   02/06/2018 05:00:00      3.648     0.000     0.672    96.672
   02/06/2018 05:15:00      7.118     0.000     0.968    96.968
   02/06/2018 05:30:00     10.221     0.000     1.211    97.211
   02/06/2018 05:45:00     12.620     0.000     1.399    97.399
   02/06/2018 06:00:00     14.333     0.000     1.545    97.545
   02/06/2018 06:15:00     14.269     0.000     1.545    97.545
   02/06/2018 06:30:00     14.216     0.000     1.540    97.540
   02/06/2018 06:45:00     14.182     0.000     1.537    97.537
   02/06/2018 07:00:00     14.159     0.000     1.535    97.535
   02/06/2018 07:15:00     12.365     0.000     1.390    97.390
   02/06/2018 07:30:00     11.211     0.000     1.298    97.298
   02/06/2018 07:45:00     10.454     0.000     1.239    97.239
   02/06/2018 08:00:00      9.947     0.000     1.199    97.199
   02/06/2018 08:15:00      8.299     0.000     1.076    97.076
   02/06/2018 08:30:00      7.198     0.000     0.989    96.989
   02/06/2018 08:45:00      6.442     0.000     0.928    96.928
   02/06/2018 09:00:00      5.909     0.000     0.883    96.883
   02/06/2018 09:15:00      4.459     0.000     0.762    96.762
   02/06/2018 09:30:00      3.458     0.000     0.665    96.665
   02/06/2018 09:45:00      2.746     0.000     0.590    96.590
   02/06/2018 10:00:00      2.223     0.000     0.530    96.530
   02/06/2018 10:15:00      1.829     0.000     0.481    96.481
   02/06/2018 10:30:00      1.527     0.000     0.439    96.439
   02/06/2018 10:45:00      1.290     0.000     0.404    96.404
   02/06/2018 11:00:00      1.102     0.000     0.374    96.374
   02/06/2018 11:15:00      0.950     0.000     0.348    96.348
   02/06/2018 11:30:00      0.826     0.000     0.325    96.325
   02/06/2018 11:45:00      0.723     0.000     0.305    96.305
   02/06/2018 12:00:00      0.637     0.000     0.288    96.288
   02/06/2018 12:15:00      0.565     0.000     0.272    96.272
   02/06/2018 12:30:00      0.504     0.000     0.257    96.257
   02/06/2018 12:45:00      0.452     0.000     0.244    96.244
   02/06/2018 13:00:00      0.407     0.000     0.233    96.233
   02/06/2018 13:15:00      0.368     0.000     0.222    96.222
   02/06/2018 13:30:00      0.334     0.000     0.212    96.212
   02/06/2018 13:45:00      0.304     0.000     0.203    96.203
   02/06/2018 14:00:00      0.278     0.000     0.195    96.195
   02/06/2018 14:15:00      0.255     0.000     0.187    96.187
   02/06/2018 14:30:00      0.235     0.000     0.180    96.180
   02/06/2018 14:45:00      0.216     0.000     0.173    96.173
   02/06/2018 15:00:00      0.200     0.000     0.167    96.167
   02/06/2018 15:15:00      0.185     0.000     0.162    96.162
   02/06/2018 15:30:00      0.172     0.000     0.156    96.156
   02/06/2018 15:45:00      0.160     0.000     0.151    96.151
  
  
  <<< Node J2 >>>
  ----------------------------------------------------------------
                           Inflow  Flooding     Depth      Head
  Date        Time            CFS       CFS      feet      feet
  ----------------------------------------------------------------
   02/06/2018 00:15:00      1.266     0.000     0.432    90.432
   02/06/2018 00:30:00      1.186     0.000     0.417    90.417
   02/06/2018 00:45:00      1.112     0.000     0.402    90.402
   02/06/2018 01:00:00      1.044     0.000     0.389    90.389
   02/06/2018 01:15:00      0.982     0.000     0.376    90.376
   02/06/2018 01:30:00      0.924     0.000     0.364    90.364
   02/06/2018 01:45:00      0.871     0.000     0.353    90.353
   02/06/2018 02:00:00      0.822     0.000     0.342    90.342
   02/06/2018 02:15:00      0.776     0.000     0.332    90.332
   02/06/2018 02:30:00      0.734     0.000     0.322    90.322
   02/06/2018 02:45:00      0.695     0.000     0.313    90.313
   02/06/2018 03:00:00      0.659     0.000     0.305    90.305
   02/06/2018 03:15:00      0.625     0.000     0.296    90.296
   02/06/2018 03:30:00      0.594     0.000     0.289    90.289
   02/06/2018 03:45:00      0.564     0.000     0.281    90.281
   02/06/2018 04:00:00      0.537     0.000     0.274    90.274
   02/06/2018 04:15:00      0.513     0.000     0.268    90.268
   02/06/2018 04:30:00      0.512     0.000     0.267    90.267
   02/06/2018 04:45:00      0.564     0.000     0.280    90.280
   02/06/2018 05:00:00      0.683     0.000     0.308    90.308
   02/06/2018 05:15:00      0.933     0.000     0.362    90.362
   02/06/2018 05:30:00      1.410     0.000     0.454    90.454
   02/06/2018 05:45:00      2.174     0.000     0.593    90.593
   02/06/2018 06:00:00      2.883     0.000     0.725    90.725
   02/06/2018 06:15:00      3.050     0.000     0.922    90.922
   02/06/2018 06:30:00      3.033     0.000     1.181    91.181
   02/06/2018 06:45:00      3.127     0.000     1.397    91.397
   02/06/2018 07:00:00      3.218     0.000     1.610    91.610
   02/06/2018 07:15:00      3.298     0.000     1.806    91.806
   02/06/2018 07:30:00      3.364     0.000     1.971    91.971
   02/06/2018 07:45:00      3.422     0.000     2.115    92.115
   02/06/2018 08:00:00      3.473     0.000     2.247    92.247
   02/06/2018 08:15:00      3.546     0.000     2.344    92.344
   02/06/2018 08:30:00      3.600     0.000     2.416    92.416
   02/06/2018 08:45:00      3.641     0.000     2.471    92.471
   02/06/2018 09:00:00      3.673     0.000     2.515    92.515
   02/06/2018 09:15:00      3.692     0.000     2.541    92.541
   02/06/2018 09:30:00      3.696     0.000     2.547    92.547
   02/06/2018 09:45:00      3.689     0.000     2.538    92.538
   02/06/2018 10:00:00      3.675     0.000     2.518    92.518
   02/06/2018 10:15:00      3.655     0.000     2.491    92.491
   02/06/2018 10:30:00      3.630     0.000     2.458    92.458
   02/06/2018 10:45:00      3.603     0.000     2.420    92.420
   02/06/2018 11:00:00      3.572     0.000     2.380    92.380
   02/06/2018 11:15:00      3.540     0.000     2.337    92.337
   02/06/2018 11:30:00      3.506     0.000     2.292    92.292
   02/06/2018 11:45:00      3.470     0.000     2.246    92.246
   02/06/2018 12:00:00      3.449     0.000     2.193    92.193
   02/06/2018 12:15:00      3.428     0.000     2.138    92.138
   02/06/2018 12:30:00      3.405     0.000     2.082    92.082
   02/06/2018 12:45:00      3.383     0.000     2.026    92.026
   02/06/2018 13:00:00      3.360     0.000     1.969    91.969
   02/06/2018 13:15:00      3.337     0.000     1.912    91.912
   02/06/2018 13:30:00      3.314     0.000     1.854    91.854
   02/06/2018 13:45:00      3.290     0.000     1.796    91.796
   02/06/2018 14:00:00      3.267     0.000     1.738    91.738
   02/06/2018 14:15:00      3.243     0.000     1.681    91.681
   02/06/2018 14:30:00      3.219     0.000     1.623    91.623
   02/06/2018 14:45:00      3.195     0.000     1.565    91.565
   02/06/2018 15:00:00      3.170     0.000     1.507    91.507
   02/06/2018 15:15:00      3.146     0.000     1.450    91.450
   02/06/2018 15:30:00      3.121     0.000     1.393    91.393
   02/06/2018 15:45:00      3.096     0.000     1.336    91.336
  
  
  <<< Node J3 >>>
  ----------------------------------------------------------------
                           Inflow  Flooding     Depth      Head
  Date        Time            CFS       CFS      feet      feet
  ----------------------------------------------------------------
   02/06/2018 00:15:00      1.270     0.000     0.539    88.539
   02/06/2018 00:30:00      1.190     0.000     0.518    88.518
   02/06/2018 00:45:00      1.115     0.000     0.498    88.498
   02/06/2018 01:00:00      1.047     0.000     0.480    88.480
   02/06/2018 01:15:00      0.984     0.000     0.463    88.463
   02/06/2018 01:30:00      0.927     0.000     0.448    88.448
   02/06/2018 01:45:00      0.873     0.000     0.433    88.433
   02/06/2018 02:00:00      0.824     0.000     0.419    88.419
   02/06/2018 02:15:00      0.778     0.000     0.406    88.406
   02/06/2018 02:30:00      0.736     0.000     0.394    88.394
   02/06/2018 02:45:00      0.697     0.000     0.383    88.383
   02/06/2018 03:00:00      0.661     0.000     0.372    88.372
   02/06/2018 03:15:00      0.627     0.000     0.361    88.361
   02/06/2018 03:30:00      0.595     0.000     0.352    88.352
   02/06/2018 03:45:00      0.566     0.000     0.342    88.342
   02/06/2018 04:00:00      0.539     0.000     0.334    88.334
   02/06/2018 04:15:00      0.514     0.000     0.326    88.326
   02/06/2018 04:30:00      0.511     0.000     0.323    88.323
   02/06/2018 04:45:00      0.559     0.000     0.337    88.337
   02/06/2018 05:00:00      0.675     0.000     0.370    88.370
   02/06/2018 05:15:00      0.916     0.000     0.434    88.434
   02/06/2018 05:30:00      1.384     0.000     0.552    88.552
   02/06/2018 05:45:00      2.145     0.000     0.736    88.736
   02/06/2018 06:00:00      2.864     0.000     1.294    89.294
   02/06/2018 06:15:00      3.020     0.000     1.460    89.460
   02/06/2018 06:30:00      3.027     0.000     1.470    89.470
   02/06/2018 06:45:00      3.122     0.000     1.577    89.577
   02/06/2018 07:00:00      3.213     0.000     1.683    89.683
   02/06/2018 07:15:00      3.294     0.000     1.781    89.781
   02/06/2018 07:30:00      3.361     0.000     1.863    89.863
   02/06/2018 07:45:00      3.419     0.000     1.935    89.935
   02/06/2018 08:00:00      3.470     0.000     2.000    90.000
   02/06/2018 08:15:00      3.544     0.073     2.000    90.000
   02/06/2018 08:30:00      3.599     0.128     2.000    90.000
   02/06/2018 08:45:00      3.640     0.169     2.000    90.000
   02/06/2018 09:00:00      3.672     0.201     2.000    90.000
   02/06/2018 09:15:00      3.692     0.221     2.000    90.000
   02/06/2018 09:30:00      3.696     0.225     2.000    90.000
   02/06/2018 09:45:00      3.689     0.218     2.000    90.000
   02/06/2018 10:00:00      3.675     0.204     2.000    90.000
   02/06/2018 10:15:00      3.655     0.184     2.000    90.000
   02/06/2018 10:30:00      3.631     0.160     2.000    90.000
   02/06/2018 10:45:00      3.603     0.132     2.000    90.000
   02/06/2018 11:00:00      3.573     0.102     2.000    90.000
   02/06/2018 11:15:00      3.541     0.070     2.000    90.000
   02/06/2018 11:30:00      3.507     0.036     2.000    90.000
   02/06/2018 11:45:00      3.472     0.001     2.000    90.000
   02/06/2018 12:00:00      3.450     0.000     1.974    89.974
   02/06/2018 12:15:00      3.429     0.000     1.946    89.946
   02/06/2018 12:30:00      3.407     0.000     1.919    89.919
   02/06/2018 12:45:00      3.384     0.000     1.891    89.891
   02/06/2018 13:00:00      3.362     0.000     1.863    89.863
   02/06/2018 13:15:00      3.339     0.000     1.834    89.834
   02/06/2018 13:30:00      3.315     0.000     1.805    89.805
   02/06/2018 13:45:00      3.292     0.000     1.777    89.777
   02/06/2018 14:00:00      3.268     0.000     1.748    89.748
   02/06/2018 14:15:00      3.244     0.000     1.719    89.719
   02/06/2018 14:30:00      3.220     0.000     1.690    89.690
   02/06/2018 14:45:00      3.196     0.000     1.661    89.661
   02/06/2018 15:00:00      3.172     0.000     1.632    89.632
   02/06/2018 15:15:00      3.147     0.000     1.604    89.604
   02/06/2018 15:30:00      3.123     0.000     1.575    89.575
   02/06/2018 15:45:00      3.098     0.000     1.547    89.547
  
  
  <<< Node Out1 >>>
  ----------------------------------------------------------------
                           Inflow  Flooding     Depth      Head
  Date        Time            CFS       CFS      feet      feet
  ----------------------------------------------------------------
   02/06/2018 00:15:00      1.280     0.000     0.478    87.478
   02/06/2018 00:30:00      1.199     0.000     0.461    87.461
   02/06/2018 00:45:00      1.124     0.000     0.446    87.446
   02/06/2018 01:00:00      1.055     0.000     0.432    87.432
   02/06/2018 01:15:00      0.992     0.000     0.418    87.418
   02/06/2018 01:30:00      0.934     0.000     0.405    87.405
   02/06/2018 01:45:00      0.880     0.000     0.392    87.392
   02/06/2018 02:00:00      0.830     0.000     0.381    87.381
   02/06/2018 02:15:00      0.784     0.000     0.370    87.370
   02/06/2018 02:30:00      0.741     0.000     0.359    87.359
   02/06/2018 02:45:00      0.702     0.000     0.349    87.349
   02/06/2018 03:00:00      0.665     0.000     0.339    87.339
   02/06/2018 03:15:00      0.631     0.000     0.330    87.330
   02/06/2018 03:30:00      0.600     0.000     0.322    87.322
   02/06/2018 03:45:00      0.570     0.000     0.313    87.313
   02/06/2018 04:00:00      0.542     0.000     0.305    87.305
   02/06/2018 04:15:00      0.517     0.000     0.298    87.298
   02/06/2018 04:30:00      0.509     0.000     0.295    87.295
   02/06/2018 04:45:00      0.549     0.000     0.307    87.307
   02/06/2018 05:00:00      0.655     0.000     0.337    87.337
   02/06/2018 05:15:00      0.875     0.000     0.391    87.391
   02/06/2018 05:30:00      1.317     0.000     0.485    87.485
   02/06/2018 05:45:00      1.989     0.000     0.602    87.602
   02/06/2018 06:00:00      2.863     0.000     0.725    87.725
   02/06/2018 06:15:00      3.019     0.000     0.744    87.744
   02/06/2018 06:30:00      3.027     0.000     0.745    87.745
   02/06/2018 06:45:00      3.122     0.000     0.757    87.757
   02/06/2018 07:00:00      3.212     0.000     0.767    87.767
   02/06/2018 07:15:00      3.293     0.000     0.776    87.776
   02/06/2018 07:30:00      3.360     0.000     0.784    87.784
   02/06/2018 07:45:00      3.418     0.000     0.790    87.790
   02/06/2018 08:00:00      3.470     0.000     0.796    87.796
   02/06/2018 08:15:00      3.471     0.000     0.796    87.796
   02/06/2018 08:30:00      3.471     0.000     0.796    87.796
   02/06/2018 08:45:00      3.471     0.000     0.796    87.796
   02/06/2018 09:00:00      3.471     0.000     0.796    87.796
   02/06/2018 09:15:00      3.471     0.000     0.796    87.796
   02/06/2018 09:30:00      3.471     0.000     0.796    87.796
   02/06/2018 09:45:00      3.471     0.000     0.796    87.796
   02/06/2018 10:00:00      3.471     0.000     0.796    87.796
   02/06/2018 10:15:00      3.471     0.000     0.796    87.796
   02/06/2018 10:30:00      3.471     0.000     0.796    87.796
   02/06/2018 10:45:00      3.471     0.000     0.796    87.796
   02/06/2018 11:00:00      3.471     0.000     0.796    87.796
   02/06/2018 11:15:00      3.471     0.000     0.796    87.796
   02/06/2018 11:30:00      3.471     0.000     0.796    87.796
   02/06/2018 11:45:00      3.471     0.000     0.796    87.796
   02/06/2018 12:00:00      3.450     0.000     0.794    87.794
   02/06/2018 12:15:00      3.429     0.000     0.791    87.791
   02/06/2018 12:30:00      3.407     0.000     0.789    87.789
   02/06/2018 12:45:00      3.384     0.000     0.786    87.786
   02/06/2018 13:00:00      3.362     0.000     0.784    87.784
   02/06/2018 13:15:00      3.339     0.000     0.781    87.781
   02/06/2018 13:30:00      3.315     0.000     0.779    87.779
   02/06/2018 13:45:00      3.292     0.000     0.776    87.776
   02/06/2018 14:00:00      3.268     0.000     0.773    87.773
   02/06/2018 14:15:00      3.244     0.000     0.771    87.771
   02/06/2018 14:30:00      3.220     0.000     0.768    87.768
   02/06/2018 14:45:00      3.196     0.000     0.765    87.765
   02/06/2018 15:00:00      3.172     0.000     0.763    87.763
   02/06/2018 15:15:00      3.147     0.000     0.760    87.760
   02/06/2018 15:30:00      3.123     0.000     0.757    87.757
   02/06/2018 15:45:00      3.098     0.000     0.754    87.754
  
  
  <<< Node St1 >>>
  ----------------------------------------------------------------
                           Inflow  Flooding     Depth      Head
  Date        Time            CFS       CFS      feet      feet
  ----------------------------------------------------------------
   02/06/2018 00:15:00      0.000     0.000     0.720    90.720
   02/06/2018 00:30:00      0.000     0.000     0.692    90.692
   02/06/2018 00:45:00      0.000     0.000     0.667    90.667
   02/06/2018 01:00:00      0.000     0.000     0.642    90.642
   02/06/2018 01:15:00      0.000     0.000     0.620    90.620
   02/06/2018 01:30:00      0.000     0.000     0.598    90.598
   02/06/2018 01:45:00      0.000     0.000     0.578    90.578
   02/06/2018 02:00:00      0.000     0.000     0.559    90.559
   02/06/2018 02:15:00      0.000     0.000     0.541    90.541
   02/06/2018 02:30:00      0.000     0.000     0.524    90.524
   02/06/2018 02:45:00      0.000     0.000     0.508    90.508
   02/06/2018 03:00:00      0.000     0.000     0.493    90.493
   02/06/2018 03:15:00      0.000     0.000     0.478    90.478
   02/06/2018 03:30:00      0.000     0.000     0.464    90.464
   02/06/2018 03:45:00      0.000     0.000     0.451    90.451
   02/06/2018 04:00:00      0.000     0.000     0.439    90.439
   02/06/2018 04:15:00      0.113     0.000     0.428    90.428
   02/06/2018 04:30:00      0.937     0.000     0.427    90.427
   02/06/2018 04:45:00      2.207     0.000     0.450    90.450
   02/06/2018 05:00:00      3.538     0.000     0.501    90.501
   02/06/2018 05:15:00      6.867     0.000     0.598    90.598
   02/06/2018 05:30:00     10.024     0.000     0.763    90.763
   02/06/2018 05:45:00     12.474     0.000     0.978    90.978
   02/06/2018 06:00:00     14.228     0.000     1.221    91.221
   02/06/2018 06:15:00     14.274     0.000     1.476    91.476
   02/06/2018 06:30:00     14.219     0.000     1.729    91.729
   02/06/2018 06:45:00     14.184     0.000     1.979    91.979
   02/06/2018 07:00:00     14.161     0.000     2.226    92.226
   02/06/2018 07:15:00     12.475     0.000     2.453    92.453
   02/06/2018 07:30:00     11.281     0.000     2.644    92.644
   02/06/2018 07:45:00     10.501     0.000     2.813    92.813
   02/06/2018 08:00:00      9.979     0.000     2.965    92.965
   02/06/2018 08:15:00      8.405     0.000     3.093    93.093
   02/06/2018 08:30:00      7.270     0.000     3.188    93.188
   02/06/2018 08:45:00      6.493     0.000     3.261    93.261
   02/06/2018 09:00:00      5.946     0.000     3.318    93.318
   02/06/2018 09:15:00      4.565     0.000     3.354    93.354
   02/06/2018 09:30:00      3.536     0.000     3.361    93.361
   02/06/2018 09:45:00      2.805     0.000     3.349    93.349
   02/06/2018 10:00:00      2.269     0.000     3.323    93.323
   02/06/2018 10:15:00      1.866     0.000     3.286    93.286
   02/06/2018 10:30:00      1.557     0.000     3.243    93.243
   02/06/2018 10:45:00      1.315     0.000     3.194    93.194
   02/06/2018 11:00:00      1.122     0.000     3.140    93.140
   02/06/2018 11:15:00      0.968     0.000     3.084    93.084
   02/06/2018 11:30:00      0.840     0.000     3.025    93.025
   02/06/2018 11:45:00      0.736     0.000     2.964    92.964
   02/06/2018 12:00:00      0.648     0.000     2.902    92.902
   02/06/2018 12:15:00      0.575     0.000     2.838    92.838
   02/06/2018 12:30:00      0.513     0.000     2.773    92.773
   02/06/2018 12:45:00      0.459     0.000     2.708    92.708
   02/06/2018 13:00:00      0.414     0.000     2.642    92.642
   02/06/2018 13:15:00      0.374     0.000     2.575    92.575
   02/06/2018 13:30:00      0.339     0.000     2.509    92.509
   02/06/2018 13:45:00      0.309     0.000     2.441    92.441
   02/06/2018 14:00:00      0.283     0.000     2.374    92.374
   02/06/2018 14:15:00      0.259     0.000     2.307    92.307
   02/06/2018 14:30:00      0.238     0.000     2.240    92.240
   02/06/2018 14:45:00      0.220     0.000     2.173    92.173
   02/06/2018 15:00:00      0.203     0.000     2.106    92.106
   02/06/2018 15:15:00      0.188     0.000     2.040    92.040
   02/06/2018 15:30:00      0.175     0.000     1.973    91.973
   02/06/2018 15:45:00      0.163     0.000     1.907    91.907
  
  
  ************
  Link Results
  ************
  
  <<< Link C1 >>>
  ----------------------------------------------------------------
                             Flow  Velocity     Depth  Capacity/
  Date        Time            CFS    ft/sec      feet   Setting 
  ----------------------------------------------------------------
   02/06/2018 00:15:00      0.000     0.000     0.000     0.000
   02/06/2018 00:30:00      0.000     0.000     0.000     0.000
   02/06/2018 00:45:00      0.000     0.000     0.000     0.000
   02/06/2018 01:00:00      0.000     0.000     0.000     0.000
   02/06/2018 01:15:00      0.000     0.000     0.000     0.000
   02/06/2018 01:30:00      0.000     0.000     0.000     0.000
   02/06/2018 01:45:00      0.000     0.000     0.000     0.000
   02/06/2018 02:00:00      0.000     0.000     0.000     0.000
   02/06/2018 02:15:00      0.000     0.000     0.000     0.000
   02/06/2018 02:30:00      0.000     0.000     0.000     0.000
   02/06/2018 02:45:00      0.000     0.000     0.000     0.000
   02/06/2018 03:00:00      0.000     0.000     0.000     0.000
   02/06/2018 03:15:00      0.000     0.000     0.000     0.000
   02/06/2018 03:30:00      0.000     0.000     0.000     0.000
   02/06/2018 03:45:00      0.000     0.000     0.000     0.000
   02/06/2018 04:00:00      0.000     0.000     0.000     0.000
   02/06/2018 04:15:00      0.113     1.483     0.120     0.024
   02/06/2018 04:30:00      0.937     2.647     0.340     0.113
   02/06/2018 04:45:00      2.207     3.386     0.521     0.207
   02/06/2018 05:00:00      3.538     3.875     0.665     0.291
   02/06/2018 05:15:00      6.867     4.680     0.948     0.467
   02/06/2018 05:30:00     10.024     5.242     1.172     0.609
   02/06/2018 05:45:00     12.474     5.603     1.334     0.709
   02/06/2018 06:00:00     14.228     5.826     1.452     0.777
   02/06/2018 06:15:00     14.274     5.839     1.453     0.778
   02/06/2018 06:30:00     14.219     5.833     1.449     0.776
   02/06/2018 06:45:00     14.184     5.829     1.447     0.775
   02/06/2018 07:00:00     14.161     5.826     1.445     0.774
   02/06/2018 07:15:00     12.475     5.624     1.330     0.706
   02/06/2018 07:30:00     11.281     5.454     1.252     0.658
   02/06/2018 07:45:00     10.501     5.338     1.200     0.626
   02/06/2018 08:00:00      9.979     5.257     1.165     0.604
   02/06/2018 08:15:00      8.405     5.002     1.055     0.535
   02/06/2018 08:30:00      7.270     4.791     0.973     0.483
   02/06/2018 08:45:00      6.493     4.636     0.915     0.446
   02/06/2018 09:00:00      5.946     4.518     0.872     0.419
   02/06/2018 09:15:00      4.565     4.197     0.756     0.346
   02/06/2018 09:30:00      3.536     3.899     0.661     0.289
   02/06/2018 09:45:00      2.805     3.650     0.587     0.245
   02/06/2018 10:00:00      2.269     3.438     0.526     0.210
   02/06/2018 10:15:00      1.866     3.249     0.477     0.183
   02/06/2018 10:30:00      1.557     3.090     0.435     0.160
   02/06/2018 10:45:00      1.315     2.941     0.400     0.142
   02/06/2018 11:00:00      1.122     2.819     0.369     0.127
   02/06/2018 11:15:00      0.968     2.699     0.343     0.114
   02/06/2018 11:30:00      0.840     2.590     0.320     0.103
   02/06/2018 11:45:00      0.736     2.501     0.299     0.094
   02/06/2018 12:00:00      0.648     2.418     0.281     0.085
   02/06/2018 12:15:00      0.575     2.330     0.265     0.079
   02/06/2018 12:30:00      0.513     2.248     0.251     0.073
   02/06/2018 12:45:00      0.459     2.183     0.237     0.067
   02/06/2018 13:00:00      0.414     2.124     0.225     0.062
   02/06/2018 13:15:00      0.374     2.069     0.214     0.058
   02/06/2018 13:30:00      0.339     2.016     0.204     0.054
   02/06/2018 13:45:00      0.309     1.961     0.195     0.050
   02/06/2018 14:00:00      0.283     1.906     0.187     0.047
   02/06/2018 14:15:00      0.259     1.854     0.179     0.044
   02/06/2018 14:30:00      0.238     1.805     0.173     0.042
   02/06/2018 14:45:00      0.220     1.758     0.167     0.040
   02/06/2018 15:00:00      0.203     1.733     0.160     0.037
   02/06/2018 15:15:00      0.188     1.700     0.153     0.035
   02/06/2018 15:30:00      0.175     1.670     0.147     0.033
   02/06/2018 15:45:00      0.163     1.642     0.142     0.032
  
  
  <<< Link C2 >>>
  ----------------------------------------------------------------
                             Flow  Velocity     Depth  Capacity/
  Date        Time            CFS    ft/sec      feet   Setting 
  ----------------------------------------------------------------
   02/06/2018 00:15:00      1.270     3.359     0.485     0.481
   02/06/2018 00:30:00      1.190     3.306     0.467     0.458
   02/06/2018 00:45:00      1.115     3.253     0.450     0.437
   02/06/2018 01:00:00      1.047     3.200     0.434     0.417
   02/06/2018 01:15:00      0.984     3.147     0.420     0.398
   02/06/2018 01:30:00      0.927     3.098     0.406     0.381
   02/06/2018 01:45:00      0.873     3.050     0.393     0.365
   02/06/2018 02:00:00      0.824     3.003     0.380     0.349
   02/06/2018 02:15:00      0.778     2.956     0.369     0.335
   02/06/2018 02:30:00      0.736     2.912     0.358     0.322
   02/06/2018 02:45:00      0.697     2.868     0.348     0.309
   02/06/2018 03:00:00      0.661     2.826     0.338     0.298
   02/06/2018 03:15:00      0.627     2.785     0.329     0.287
   02/06/2018 03:30:00      0.595     2.746     0.320     0.276
   02/06/2018 03:45:00      0.566     2.706     0.312     0.266
   02/06/2018 04:00:00      0.539     2.668     0.304     0.257
   02/06/2018 04:15:00      0.514     2.634     0.297     0.249
   02/06/2018 04:30:00      0.511     2.637     0.295     0.247
   02/06/2018 04:45:00      0.559     2.718     0.308     0.262
   02/06/2018 05:00:00      0.675     2.876     0.339     0.299
   02/06/2018 05:15:00      0.916     3.144     0.398     0.371
   02/06/2018 05:30:00      1.384     3.496     0.503     0.504
   02/06/2018 05:45:00      2.145     3.860     0.666     0.707
   02/06/2018 06:00:00      2.864     3.976     0.863     0.917
   02/06/2018 06:15:00      3.020     3.896     0.961     0.987
   02/06/2018 06:30:00      3.027     3.854     1.000     1.000
   02/06/2018 06:45:00      3.122     3.975     1.000     1.000
   02/06/2018 07:00:00      3.213     4.091     1.000     1.000
   02/06/2018 07:15:00      3.294     4.194     1.000     1.000
   02/06/2018 07:30:00      3.361     4.279     1.000     1.000
   02/06/2018 07:45:00      3.419     4.353     1.000     1.000
   02/06/2018 08:00:00      3.470     4.418     1.000     1.000
   02/06/2018 08:15:00      3.544     4.513     1.000     1.000
   02/06/2018 08:30:00      3.599     4.582     1.000     1.000
   02/06/2018 08:45:00      3.640     4.634     1.000     1.000
   02/06/2018 09:00:00      3.672     4.675     1.000     1.000
   02/06/2018 09:15:00      3.692     4.700     1.000     1.000
   02/06/2018 09:30:00      3.696     4.706     1.000     1.000
   02/06/2018 09:45:00      3.689     4.697     1.000     1.000
   02/06/2018 10:00:00      3.675     4.679     1.000     1.000
   02/06/2018 10:15:00      3.655     4.654     1.000     1.000
   02/06/2018 10:30:00      3.631     4.623     1.000     1.000
   02/06/2018 10:45:00      3.603     4.588     1.000     1.000
   02/06/2018 11:00:00      3.573     4.550     1.000     1.000
   02/06/2018 11:15:00      3.541     4.508     1.000     1.000
   02/06/2018 11:30:00      3.507     4.465     1.000     1.000
   02/06/2018 11:45:00      3.472     4.420     1.000     1.000
   02/06/2018 12:00:00      3.450     4.393     1.000     1.000
   02/06/2018 12:15:00      3.429     4.366     1.000     1.000
   02/06/2018 12:30:00      3.407     4.338     1.000     1.000
   02/06/2018 12:45:00      3.384     4.309     1.000     1.000
   02/06/2018 13:00:00      3.362     4.280     1.000     1.000
   02/06/2018 13:15:00      3.339     4.251     1.000     1.000
   02/06/2018 13:30:00      3.315     4.221     1.000     1.000
   02/06/2018 13:45:00      3.292     4.191     1.000     1.000
   02/06/2018 14:00:00      3.268     4.161     1.000     1.000
   02/06/2018 14:15:00      3.244     4.130     1.000     1.000
   02/06/2018 14:30:00      3.220     4.100     1.000     1.000
   02/06/2018 14:45:00      3.196     4.069     1.000     1.000
   02/06/2018 15:00:00      3.172     4.038     1.000     1.000
   02/06/2018 15:15:00      3.147     4.007     1.000     1.000
   02/06/2018 15:30:00      3.123     3.976     1.000     1.000
   02/06/2018 15:45:00      3.098     3.944     1.000     1.000
  
  
  <<< Link C3 >>>
  ----------------------------------------------------------------
                             Flow  Velocity     Depth  Capacity/
  Date        Time            CFS    ft/sec      feet   Setting 
  ----------------------------------------------------------------
   02/06/2018 00:15:00      1.280     3.193     0.508     0.510
   02/06/2018 00:30:00      1.199     3.137     0.490     0.487
   02/06/2018 00:45:00      1.124     3.081     0.472     0.465
   02/06/2018 01:00:00      1.055     3.027     0.456     0.444
   02/06/2018 01:15:00      0.992     2.976     0.441     0.424
   02/06/2018 01:30:00      0.934     2.923     0.426     0.407
   02/06/2018 01:45:00      0.880     2.875     0.413     0.390
   02/06/2018 02:00:00      0.830     2.830     0.400     0.373
   02/06/2018 02:15:00      0.784     2.784     0.388     0.359
   02/06/2018 02:30:00      0.741     2.739     0.377     0.345
   02/06/2018 02:45:00      0.702     2.698     0.366     0.331
   02/06/2018 03:00:00      0.665     2.658     0.355     0.319
   02/06/2018 03:15:00      0.631     2.619     0.346     0.307
   02/06/2018 03:30:00      0.600     2.579     0.337     0.296
   02/06/2018 03:45:00      0.570     2.543     0.328     0.285
   02/06/2018 04:00:00      0.542     2.509     0.319     0.275
   02/06/2018 04:15:00      0.517     2.475     0.312     0.266
   02/06/2018 04:30:00      0.509     2.462     0.309     0.263
   02/06/2018 04:45:00      0.549     2.515     0.322     0.278
   02/06/2018 05:00:00      0.655     2.642     0.353     0.316
   02/06/2018 05:15:00      0.875     2.861     0.412     0.389
   02/06/2018 05:30:00      1.317     3.205     0.518     0.523
   02/06/2018 05:45:00      1.989     3.565     0.668     0.710
   02/06/2018 06:00:00      2.863     3.975     0.863     0.917
   02/06/2018 06:15:00      3.019     4.154     0.872     0.925
   02/06/2018 06:30:00      3.027     4.163     0.873     0.926
   02/06/2018 06:45:00      3.122     4.271     0.878     0.931
   02/06/2018 07:00:00      3.212     4.375     0.884     0.935
   02/06/2018 07:15:00      3.293     4.468     0.888     0.938
   02/06/2018 07:30:00      3.360     4.545     0.892     0.941
   02/06/2018 07:45:00      3.418     4.610     0.895     0.944
   02/06/2018 08:00:00      3.470     4.669     0.898     0.946
   02/06/2018 08:15:00      3.471     4.670     0.898     0.946
   02/06/2018 08:30:00      3.471     4.670     0.898     0.946
   02/06/2018 08:45:00      3.471     4.670     0.898     0.946
   02/06/2018 09:00:00      3.471     4.670     0.898     0.946
   02/06/2018 09:15:00      3.471     4.670     0.898     0.946
   02/06/2018 09:30:00      3.471     4.670     0.898     0.946
   02/06/2018 09:45:00      3.471     4.670     0.898     0.946
   02/06/2018 10:00:00      3.471     4.670     0.898     0.946
   02/06/2018 10:15:00      3.471     4.670     0.898     0.946
   02/06/2018 10:30:00      3.471     4.670     0.898     0.946
   02/06/2018 10:45:00      3.471     4.670     0.898     0.946
   02/06/2018 11:00:00      3.471     4.670     0.898     0.946
   02/06/2018 11:15:00      3.471     4.670     0.898     0.946
   02/06/2018 11:30:00      3.471     4.670     0.898     0.946
   02/06/2018 11:45:00      3.471     4.670     0.898     0.946
   02/06/2018 12:00:00      3.450     4.647     0.897     0.945
   02/06/2018 12:15:00      3.429     4.622     0.896     0.944
   02/06/2018 12:30:00      3.407     4.598     0.894     0.943
   02/06/2018 12:45:00      3.384     4.572     0.893     0.943
   02/06/2018 13:00:00      3.362     4.546     0.892     0.941
   02/06/2018 13:15:00      3.339     4.520     0.891     0.940
   02/06/2018 13:30:00      3.315     4.493     0.889     0.939
   02/06/2018 13:45:00      3.292     4.466     0.888     0.938
   02/06/2018 14:00:00      3.268     4.439     0.887     0.937
   02/06/2018 14:15:00      3.244     4.412     0.885     0.936
   02/06/2018 14:30:00      3.220     4.384     0.884     0.935
   02/06/2018 14:45:00      3.196     4.356     0.883     0.934
   02/06/2018 15:00:00      3.172     4.328     0.881     0.933
   02/06/2018 15:15:00      3.147     4.300     0.880     0.932
   02/06/2018 15:30:00      3.123     4.272     0.879     0.931
   02/06/2018 15:45:00      3.098     4.244     0.877     0.929
  
  
  <<< Link R1 >>>
  ----------------------------------------------------------------
                             Flow  Velocity     Depth  Capacity/
  Date        Time            CFS    ft/sec      feet   Setting 
  ----------------------------------------------------------------
   02/06/2018 00:15:00      1.266     0.000     1.000     1.000
   02/06/2018 00:30:00      1.186     0.000     1.000     1.000
   02/06/2018 00:45:00      1.112     0.000     1.000     1.000
   02/06/2018 01:00:00      1.044     0.000     1.000     1.000
   02/06/2018 01:15:00      0.982     0.000     1.000     1.000
   02/06/2018 01:30:00      0.924     0.000     1.000     1.000
   02/06/2018 01:45:00      0.871     0.000     1.000     1.000
   02/06/2018 02:00:00      0.822     0.000     1.000     1.000
   02/06/2018 02:15:00      0.776     0.000     1.000     1.000
   02/06/2018 02:30:00      0.734     0.000     1.000     1.000
   02/06/2018 02:45:00      0.695     0.000     1.000     1.000
   02/06/2018 03:00:00      0.659     0.000     1.000     1.000
   02/06/2018 03:15:00      0.625     0.000     1.000     1.000
   02/06/2018 03:30:00      0.594     0.000     1.000     1.000
   02/06/2018 03:45:00      0.564     0.000     1.000     1.000
   02/06/2018 04:00:00      0.537     0.000     1.000     1.000
   02/06/2018 04:15:00      0.513     0.000     1.000     1.000
   02/06/2018 04:30:00      0.512     0.000     1.000     1.000
   02/06/2018 04:45:00      0.564     0.000     1.000     1.000
   02/06/2018 05:00:00      0.683     0.000     1.000     1.000
   02/06/2018 05:15:00      0.933     0.000     1.000     1.000
   02/06/2018 05:30:00      1.410     0.000     1.000     1.000
   02/06/2018 05:45:00      2.174     0.000     1.000     1.000
   02/06/2018 06:00:00      2.883     0.000     1.000     1.000
   02/06/2018 06:15:00      3.050     0.000     1.000     1.000
   02/06/2018 06:30:00      3.033     0.000     1.000     1.000
   02/06/2018 06:45:00      3.127     0.000     1.000     1.000
   02/06/2018 07:00:00      3.218     0.000     1.000     1.000
   02/06/2018 07:15:00      3.298     0.000     1.000     1.000
   02/06/2018 07:30:00      3.364     0.000     1.000     1.000
   02/06/2018 07:45:00      3.422     0.000     1.000     1.000
   02/06/2018 08:00:00      3.473     0.000     1.000     1.000
   02/06/2018 08:15:00      3.546     0.000     1.000     1.000
   02/06/2018 08:30:00      3.600     0.000     1.000     1.000
   02/06/2018 08:45:00      3.641     0.000     1.000     1.000
   02/06/2018 09:00:00      3.673     0.000     1.000     1.000
   02/06/2018 09:15:00      3.692     0.000     1.000     1.000
   02/06/2018 09:30:00      3.696     0.000     1.000     1.000
   02/06/2018 09:45:00      3.689     0.000     1.000     1.000
   02/06/2018 10:00:00      3.675     0.000     1.000     1.000
   02/06/2018 10:15:00      3.655     0.000     1.000     1.000
   02/06/2018 10:30:00      3.630     0.000     1.000     1.000
   02/06/2018 10:45:00      3.603     0.000     1.000     1.000
   02/06/2018 11:00:00      3.572     0.000     1.000     1.000
   02/06/2018 11:15:00      3.540     0.000     1.000     1.000
   02/06/2018 11:30:00      3.506     0.000     1.000     1.000
   02/06/2018 11:45:00      3.470     0.000     1.000     1.000
   02/06/2018 12:00:00      3.449     0.000     1.000     1.000
   02/06/2018 12:15:00      3.428     0.000     1.000     1.000
   02/06/2018 12:30:00      3.405     0.000     1.000     1.000
   02/06/2018 12:45:00      3.383     0.000     1.000     1.000
   02/06/2018 13:00:00      3.360     0.000     1.000     1.000
   02/06/2018 13:15:00      3.337     0.000     1.000     1.000
   02/06/2018 13:30:00      3.314     0.000     1.000     1.000
   02/06/2018 13:45:00      3.290     0.000     1.000     1.000
   02/06/2018 14:00:00      3.267     0.000     1.000     1.000
   02/06/2018 14:15:00      3.243     0.000     1.000     1.000
   02/06/2018 14:30:00      3.219     0.000     1.000     1.000
   02/06/2018 14:45:00      3.195     0.000     1.000     1.000
   02/06/2018 15:00:00      3.170     0.000     1.000     1.000
   02/06/2018 15:15:00      3.146     0.000     1.000     1.000
   02/06/2018 15:30:00      3.121     0.000     1.000     1.000
   02/06/2018 15:45:00      3.096     0.000     1.000     1.000
  

  Analysis begun on:  Mon Apr 23 13:42:36 2018
  Analysis ended on:  Mon Apr 23 13:42:36 2018
  Total elapsed time: < 1 sec