
  EPA STORM WATER MANAGEMENT MODEL - VERSION 5.1 (Build 5.1.012)
  --------------------------------------------------------------

  
  *********************************************************
  NOTE: The summary statistics displayed in this report are
  based on results found at every computational time step,  
  not just on results from each reporting time step.
  *********************************************************
  
  ****************
  Analysis Options
  ****************
  Flow Units ............... CFS
  Process Models:
    Rainfall/Runoff ........ YES
    RDII ................... NO
    Snowmelt ............... NO
    Groundwater ............ NO
    Flow Routing ........... YES
    Ponding Allowed ........ NO
    Water Quality .......... NO
  Infiltration Method ...... MODIFIED_GREEN_AMPT
  Flow Routing Method ...... DYNWAVE
  Starting Date ............ 02/06/2018 00:00:00
  Ending Date .............. 02/06/2018 16:00:00
  Antecedent Dry Days ...... 0.0
  Report Time Step ......... 00:15:00
  Wet Time Step ............ 00:05:00
  Dry Time Step ............ 01:00:00
  Routing Time Step ........ 10.00 sec
  Variable Time Step ....... YES
  Maximum Trials ........... 8
  Number of Threads ........ 1
  Head Tolerance ........... 0.005000 ft
  
  
  **************************        Volume         Depth
  Runoff Quantity Continuity     acre-feet        inches
  **************************     ---------       -------
  Initial LID Storage ......         1.266         0.217
  Total Precipitation ......         8.896         1.525
  Evaporation Loss .........         0.000         0.000
  Infiltration Loss ........         4.448         0.762
  Surface Runoff ...........         5.213         0.894
  Final Storage ............         0.184         0.032
  Continuity Error (%) .....         3.117
  
  
  **************************        Volume        Volume
  Flow Routing Continuity        acre-feet      10^6 gal
  **************************     ---------     ---------
  Dry Weather Inflow .......         0.000         0.000
  Wet Weather Inflow .......         5.661         1.845
  Groundwater Inflow .......         0.000         0.000
  RDII Inflow ..............         0.000         0.000
  External Inflow ..........         0.000         0.000
  External Outflow .........         4.333         1.412
  Flooding Loss ............         0.230         0.075
  Evaporation Loss .........         0.000         0.000
  Exfiltration Loss ........         0.000         0.000
  Initial Stored Volume ....         1.143         0.373
  Final Stored Volume ......         2.243         0.731
  Continuity Error (%) .....        -0.022
  
  
  ***************************
  Time-Step Critical Elements
  ***************************
  None
  
  
  ********************************
  Highest Flow Instability Indexes
  ********************************
  All links are stable.
  
  
  *************************
  Routing Time Step Summary
  *************************
  Minimum Time Step           :     2.92 sec
  Average Time Step           :     9.99 sec
  Maximum Time Step           :    10.00 sec
  Percent in Steady State     :     0.00
  Average Iterations per Step :     2.00
  Percent Not Converging      :     0.00
  
  
  ***************************
  Subcatchment Runoff Summary
  ***************************
  
  --------------------------------------------------------------------------------------------------------
                            Total      Total      Total      Total      Total       Total     Peak  Runoff
                           Precip      Runon       Evap      Infil     Runoff      Runoff   Runoff   Coeff
  Subcatchment                 in         in         in         in         in    10^6 gal      CFS
  --------------------------------------------------------------------------------------------------------
  S1                         1.52       0.00       0.00       0.76       0.89        1.70    14.98   0.586
  
  
  ******************
  Node Depth Summary
  ******************
  
  ---------------------------------------------------------------------------------
                                 Average  Maximum  Maximum  Time of Max    Reported
                                   Depth    Depth      HGL   Occurrence   Max Depth
  Node                 Type         Feet     Feet     Feet  days hr:min        Feet
  ---------------------------------------------------------------------------------
  J1                   JUNCTION     0.65     1.61    97.61     0  06:01        1.60
  J2                   JUNCTION     1.98     3.13    93.13     0  09:21        3.13
  J3                   JUNCTION     1.77     2.00    90.00     0  06:53        2.00
  Out1                 OUTFALL      0.77     0.80    87.80     0  06:59        0.80
  St1                  STORAGE      2.70     4.13    94.13     0  09:21        4.13
  
  
  *******************
  Node Inflow Summary
  *******************
  
  -------------------------------------------------------------------------------------------------
                                  Maximum  Maximum                  Lateral       Total        Flow
                                  Lateral    Total  Time of Max      Inflow      Inflow     Balance
                                   Inflow   Inflow   Occurrence      Volume      Volume       Error
  Node                 Type           CFS      CFS  days hr:min    10^6 gal    10^6 gal     Percent
  -------------------------------------------------------------------------------------------------
  J1                   JUNCTION     14.98    14.98     0  06:00        1.84        1.84      -0.408
  J2                   JUNCTION      0.00     4.10     0  09:21           0        1.49       0.028
  J3                   JUNCTION      0.00     4.10     0  09:21           0        1.49       0.002
  Out1                 OUTFALL       0.00     3.47     0  06:59           0        1.41       0.000
  St1                  STORAGE       0.00    14.96     0  06:01           0        2.21      -0.002
  
  
  **********************
  Node Surcharge Summary
  **********************
  
  Surcharging occurs when water rises above the top of the highest conduit.
  ---------------------------------------------------------------------
                                               Max. Height   Min. Depth
                                   Hours       Above Crown    Below Rim
  Node                 Type      Surcharged           Feet         Feet
  ---------------------------------------------------------------------
  J2                   JUNCTION       13.56          2.129        1.871
  J3                   JUNCTION       16.00          1.000        0.000
  
  
  *********************
  Node Flooding Summary
  *********************
  
  Flooding refers to all water that overflows a node, whether it ponds or not.
  --------------------------------------------------------------------------
                                                             Total   Maximum
                                 Maximum   Time of Max       Flood    Ponded
                        Hours       Rate    Occurrence      Volume     Depth
  Node                 Flooded       CFS   days hr:min    10^6 gal      Feet
  --------------------------------------------------------------------------
  J3                      7.24      0.63      0  09:21       0.075     0.000
  
  
  **********************
  Storage Volume Summary
  **********************
  
  --------------------------------------------------------------------------------------------------
                         Average     Avg  Evap Exfil       Maximum     Max    Time of Max    Maximum
                          Volume    Pcnt  Pcnt  Pcnt        Volume    Pcnt     Occurrence    Outflow
  Storage Unit          1000 ft3    Full  Loss  Loss      1000 ft3    Full    days hr:min        CFS
  --------------------------------------------------------------------------------------------------
  St1                    108.137      54     0     0       165.141      83       0  09:21       4.10
  
  
  ***********************
  Outfall Loading Summary
  ***********************
  
  -----------------------------------------------------------
                         Flow       Avg       Max       Total
                         Freq      Flow      Flow      Volume
  Outfall Node           Pcnt       CFS       CFS    10^6 gal
  -----------------------------------------------------------
  Out1                 100.00      3.28      3.47       1.412
  -----------------------------------------------------------
  System               100.00      3.28      3.47       1.412
  
  
  ********************
  Link Flow Summary
  ********************
  
  -----------------------------------------------------------------------------
                                 Maximum  Time of Max   Maximum    Max/    Max/
                                  |Flow|   Occurrence   |Veloc|    Full    Full
  Link                 Type          CFS  days hr:min    ft/sec    Flow   Depth
  -----------------------------------------------------------------------------
  C1                   CONDUIT     14.96     0  06:01      5.92    1.02    0.75
  C2                   CONDUIT      4.10     0  09:21      5.22    1.25    1.00
  C3                   CONDUIT      3.47     0  06:59      4.67    1.50    0.90
  R1                   ORIFICE      4.10     0  09:21                          
  
  
  ***************************
  Flow Classification Summary
  ***************************
  
  -------------------------------------------------------------------------------------
                      Adjusted    ---------- Fraction of Time in Flow Class ---------- 
                       /Actual         Up    Down  Sub   Sup   Up    Down  Norm  Inlet 
  Conduit               Length    Dry  Dry   Dry   Crit  Crit  Crit  Crit  Ltd   Ctrl  
  -------------------------------------------------------------------------------------
  C1                      1.00   0.00  0.00  0.00  0.00  0.00  0.00  1.00  0.00  0.00
  C2                      1.00   0.00  0.00  0.00  1.00  0.00  0.00  0.00  0.00  0.00
  C3                      1.00   0.00  0.00  0.00  1.00  0.00  0.00  0.00  0.00  0.00
  
  
  *************************
  Conduit Surcharge Summary
  *************************
  
  ----------------------------------------------------------------------------
                                                           Hours        Hours 
                         --------- Hours Full --------   Above Full   Capacity
  Conduit                Both Ends  Upstream  Dnstream   Normal Flow   Limited
  ----------------------------------------------------------------------------
  C1                          0.01      0.01      0.01      0.28         0.01
  C2                         13.56     13.56     16.00      9.68         9.69
  C3                          0.01     16.00      0.01     16.00         0.01
  
  
  ********************
  Subcatchment Results
  ********************
  
  <<< Subcatchment S1 >>>
  ---------------------------------------------------
  Date        Time        Precip.    Losses    Runoff
                            in/hr     in/hr       CFS
  ---------------------------------------------------
   02/06/2018 00:15:00      0.000     0.000   11.7375
   02/06/2018 00:30:00      0.000     0.000    9.1261
   02/06/2018 00:45:00      0.000     0.000    6.5146
   02/06/2018 01:00:00      0.000     0.000    3.9031
   02/06/2018 01:15:00      0.000     0.000    3.0653
   02/06/2018 01:30:00      0.000     0.000    2.4591
   02/06/2018 01:45:00      0.000     0.000    2.0084
   02/06/2018 02:00:00      0.000     0.000    1.6654
   02/06/2018 02:15:00      0.000     0.000    1.3991
   02/06/2018 02:30:00      0.000     0.000    1.1888
   02/06/2018 02:45:00      0.000     0.000    1.0202
   02/06/2018 03:00:00      0.000     0.000    0.8833
   02/06/2018 03:15:00      0.000     0.000    0.7708
   02/06/2018 03:30:00      0.000     0.000    0.6774
   02/06/2018 03:45:00      0.000     0.000    0.5991
   02/06/2018 04:00:00      0.250     0.125    0.5329
   02/06/2018 04:15:00      0.250     0.125    1.6877
   02/06/2018 04:30:00      0.250     0.125    3.0187
   02/06/2018 04:45:00      0.250     0.125    4.2896
   02/06/2018 05:00:00      0.500     0.250    5.3854
   02/06/2018 05:15:00      0.500     0.250    8.7582
   02/06/2018 05:30:00      0.500     0.250   11.5211
   02/06/2018 05:45:00      0.500     0.250   13.5622
   02/06/2018 06:00:00      0.400     0.200   14.9807
   02/06/2018 06:15:00      0.400     0.200   14.6775
   02/06/2018 06:30:00      0.400     0.200   14.4818
   02/06/2018 06:45:00      0.400     0.200   14.3549
   02/06/2018 07:00:00      0.250     0.125   14.2723
   02/06/2018 07:15:00      0.250     0.125   12.4254
   02/06/2018 07:30:00      0.250     0.125   11.2504
   02/06/2018 07:45:00      0.250     0.125   10.4802
   02/06/2018 08:00:00      0.125     0.062    9.9648
   02/06/2018 08:15:00      0.125     0.062    8.3037
   02/06/2018 08:30:00      0.125     0.062    7.2009
   02/06/2018 08:45:00      0.125     0.062    6.4437
   02/06/2018 09:00:00      0.000     0.000    5.9102
   02/06/2018 09:15:00      0.000     0.000    4.4540
   02/06/2018 09:30:00      0.000     0.000    3.4546
   02/06/2018 09:45:00      0.000     0.000    2.7431
   02/06/2018 10:00:00      0.000     0.000    2.2209
   02/06/2018 10:15:00      0.000     0.000    1.8280
   02/06/2018 10:30:00      0.000     0.000    1.5259
   02/06/2018 10:45:00      0.000     0.000    1.2894
   02/06/2018 11:00:00      0.000     0.000    1.1012
   02/06/2018 11:15:00      0.000     0.000    0.9493
   02/06/2018 11:30:00      0.000     0.000    0.8251
   02/06/2018 11:45:00      0.000     0.000    0.7226
   02/06/2018 12:00:00      0.000     0.000    0.6371
   02/06/2018 12:15:00      0.000     0.000    0.5651
   02/06/2018 12:30:00      0.000     0.000    0.5040
   02/06/2018 12:45:00      0.000     0.000    0.4517
   02/06/2018 13:00:00      0.000     0.000    0.4068
   02/06/2018 13:15:00      0.000     0.000    0.3678
   02/06/2018 13:30:00      0.000     0.000    0.3339
   02/06/2018 13:45:00      0.000     0.000    0.3042
   02/06/2018 14:00:00      0.000     0.000    0.2781
   02/06/2018 14:15:00      0.000     0.000    0.2550
   02/06/2018 14:30:00      0.000     0.000    0.2345
   02/06/2018 14:45:00      0.000     0.000    0.2163
   02/06/2018 15:00:00      0.000     0.000    0.1999
   02/06/2018 15:15:00      0.000     0.000    0.1853
   02/06/2018 15:30:00      0.000     0.000    0.1721
   02/06/2018 15:45:00      0.000     0.000    0.1602
  
  
  ************
  Node Results
  ************
  
  <<< Node J1 >>>
  ----------------------------------------------------------------
                           Inflow  Flooding     Depth      Head
  Date        Time            CFS       CFS      feet      feet
  ----------------------------------------------------------------
   02/06/2018 00:15:00     11.767     0.000     1.345    97.345
   02/06/2018 00:30:00      9.155     0.000     1.145    97.145
   02/06/2018 00:45:00      6.544     0.000     0.942    96.942
   02/06/2018 01:00:00      3.926     0.000     0.719    96.719
   02/06/2018 01:15:00      3.072     0.000     0.625    96.625
   02/06/2018 01:30:00      2.464     0.000     0.558    96.558
   02/06/2018 01:45:00      2.012     0.000     0.504    96.504
   02/06/2018 02:00:00      1.668     0.000     0.459    96.459
   02/06/2018 02:15:00      1.401     0.000     0.421    96.421
   02/06/2018 02:30:00      1.190     0.000     0.389    96.389
   02/06/2018 02:45:00      1.022     0.000     0.361    96.361
   02/06/2018 03:00:00      0.884     0.000     0.336    96.336
   02/06/2018 03:15:00      0.772     0.000     0.315    96.315
   02/06/2018 03:30:00      0.678     0.000     0.296    96.296
   02/06/2018 03:45:00      0.599     0.000     0.280    96.280
   02/06/2018 04:00:00      0.533     0.000     0.264    96.264
   02/06/2018 04:15:00      1.685     0.000     0.442    96.442
   02/06/2018 04:30:00      3.015     0.000     0.605    96.605
   02/06/2018 04:45:00      4.287     0.000     0.733    96.733
   02/06/2018 05:00:00      5.383     0.000     0.832    96.832
   02/06/2018 05:15:00      8.750     0.000     1.095    97.095
   02/06/2018 05:30:00     11.509     0.000     1.310    97.310
   02/06/2018 05:45:00     13.553     0.000     1.476    97.476
   02/06/2018 06:00:00     14.975     0.000     1.604    97.604
   02/06/2018 06:15:00     14.679     0.000     1.583    97.583
   02/06/2018 06:30:00     14.483     0.000     1.564    97.564
   02/06/2018 06:45:00     14.355     0.000     1.553    97.553
   02/06/2018 07:00:00     14.273     0.000     1.545    97.545
   02/06/2018 07:15:00     12.433     0.000     1.396    97.396
   02/06/2018 07:30:00     11.255     0.000     1.302    97.302
   02/06/2018 07:45:00     10.483     0.000     1.241    97.241
   02/06/2018 08:00:00      9.967     0.000     1.201    97.201
   02/06/2018 08:15:00      8.311     0.000     1.077    97.077
   02/06/2018 08:30:00      7.206     0.000     0.990    96.990
   02/06/2018 08:45:00      6.447     0.000     0.928    96.928
   02/06/2018 09:00:00      5.913     0.000     0.884    96.884
   02/06/2018 09:15:00      4.460     0.000     0.762    96.762
   02/06/2018 09:30:00      3.459     0.000     0.666    96.666
   02/06/2018 09:45:00      2.746     0.000     0.591    96.591
   02/06/2018 10:00:00      2.223     0.000     0.530    96.530
   02/06/2018 10:15:00      1.830     0.000     0.481    96.481
   02/06/2018 10:30:00      1.527     0.000     0.439    96.439
   02/06/2018 10:45:00      1.290     0.000     0.404    96.404
   02/06/2018 11:00:00      1.102     0.000     0.374    96.374
   02/06/2018 11:15:00      0.950     0.000     0.348    96.348
   02/06/2018 11:30:00      0.826     0.000     0.325    96.325
   02/06/2018 11:45:00      0.723     0.000     0.305    96.305
   02/06/2018 12:00:00      0.637     0.000     0.288    96.288
   02/06/2018 12:15:00      0.565     0.000     0.272    96.272
   02/06/2018 12:30:00      0.504     0.000     0.257    96.257
   02/06/2018 12:45:00      0.452     0.000     0.244    96.244
   02/06/2018 13:00:00      0.407     0.000     0.233    96.233
   02/06/2018 13:15:00      0.368     0.000     0.222    96.222
   02/06/2018 13:30:00      0.334     0.000     0.212    96.212
   02/06/2018 13:45:00      0.304     0.000     0.203    96.203
   02/06/2018 14:00:00      0.278     0.000     0.195    96.195
   02/06/2018 14:15:00      0.255     0.000     0.187    96.187
   02/06/2018 14:30:00      0.235     0.000     0.180    96.180
   02/06/2018 14:45:00      0.216     0.000     0.173    96.173
   02/06/2018 15:00:00      0.200     0.000     0.167    96.167
   02/06/2018 15:15:00      0.185     0.000     0.162    96.162
   02/06/2018 15:30:00      0.172     0.000     0.156    96.156
   02/06/2018 15:45:00      0.160     0.000     0.151    96.151
  
  
  <<< Node J2 >>>
  ----------------------------------------------------------------
                           Inflow  Flooding     Depth      Head
  Date        Time            CFS       CFS      feet      feet
  ----------------------------------------------------------------
   02/06/2018 00:15:00      3.039     0.000     0.887    90.887
   02/06/2018 00:30:00      2.986     0.000     1.078    91.078
   02/06/2018 00:45:00      3.028     0.000     1.176    91.176
   02/06/2018 01:00:00      3.048     0.000     1.223    91.223
   02/06/2018 01:15:00      3.052     0.000     1.232    91.232
   02/06/2018 01:30:00      3.050     0.000     1.228    91.228
   02/06/2018 01:45:00      3.043     0.000     1.213    91.213
   02/06/2018 02:00:00      3.033     0.000     1.190    91.190
   02/06/2018 02:15:00      3.020     0.000     1.162    91.162
   02/06/2018 02:30:00      3.005     0.000     1.129    91.129
   02/06/2018 02:45:00      2.989     0.000     1.092    91.092
   02/06/2018 03:00:00      2.971     0.000     1.054    91.054
   02/06/2018 03:15:00      2.952     0.000     1.013    91.013
   02/06/2018 03:30:00      3.008     0.000     0.942    90.942
   02/06/2018 03:45:00      3.007     0.000     0.890    90.890
   02/06/2018 04:00:00      2.986     0.000     0.843    90.843
   02/06/2018 04:15:00      2.960     0.000     0.806    90.806
   02/06/2018 04:30:00      2.951     0.000     0.793    90.793
   02/06/2018 04:45:00      2.964     0.000     0.801    90.801
   02/06/2018 05:00:00      2.992     0.000     0.831    90.831
   02/06/2018 05:15:00      3.031     0.000     0.903    90.903
   02/06/2018 05:30:00      2.987     0.000     1.076    91.076
   02/06/2018 05:45:00      3.067     0.000     1.259    91.259
   02/06/2018 06:00:00      3.161     0.000     1.474    91.474
   02/06/2018 06:15:00      3.255     0.000     1.700    91.700
   02/06/2018 06:30:00      3.344     0.000     1.918    91.918
   02/06/2018 06:45:00      3.429     0.000     2.132    92.132
   02/06/2018 07:00:00      3.537     0.000     2.331    92.331
   02/06/2018 07:15:00      3.662     0.000     2.499    92.499
   02/06/2018 07:30:00      3.763     0.000     2.638    92.638
   02/06/2018 07:45:00      3.848     0.000     2.759    92.759
   02/06/2018 08:00:00      3.923     0.000     2.868    92.868
   02/06/2018 08:15:00      3.983     0.000     2.958    92.958
   02/06/2018 08:30:00      4.027     0.000     3.022    93.022
   02/06/2018 08:45:00      4.058     0.000     3.071    93.071
   02/06/2018 09:00:00      4.082     0.000     3.107    93.107
   02/06/2018 09:15:00      4.095     0.000     3.127    93.127
   02/06/2018 09:30:00      4.094     0.000     3.126    93.126
   02/06/2018 09:45:00      4.084     0.000     3.110    93.110
   02/06/2018 10:00:00      4.066     0.000     3.083    93.083
   02/06/2018 10:15:00      4.044     0.000     3.049    93.049
   02/06/2018 10:30:00      4.017     0.000     3.010    93.010
   02/06/2018 10:45:00      3.988     0.000     2.966    92.966
   02/06/2018 11:00:00      3.956     0.000     2.919    92.919
   02/06/2018 11:15:00      3.923     0.000     2.870    92.870
   02/06/2018 11:30:00      3.887     0.000     2.818    92.818
   02/06/2018 11:45:00      3.851     0.000     2.766    92.766
   02/06/2018 12:00:00      3.813     0.000     2.712    92.712
   02/06/2018 12:15:00      3.775     0.000     2.658    92.658
   02/06/2018 12:30:00      3.736     0.000     2.603    92.603
   02/06/2018 12:45:00      3.696     0.000     2.548    92.548
   02/06/2018 13:00:00      3.656     0.000     2.493    92.493
   02/06/2018 13:15:00      3.615     0.000     2.438    92.438
   02/06/2018 13:30:00      3.574     0.000     2.382    92.382
   02/06/2018 13:45:00      3.532     0.000     2.327    92.327
   02/06/2018 14:00:00      3.491     0.000     2.272    92.272
   02/06/2018 14:15:00      3.457     0.000     2.214    92.214
   02/06/2018 14:30:00      3.433     0.000     2.152    92.152
   02/06/2018 14:45:00      3.409     0.000     2.090    92.090
   02/06/2018 15:00:00      3.384     0.000     2.029    92.029
   02/06/2018 15:15:00      3.359     0.000     1.967    91.967
   02/06/2018 15:30:00      3.335     0.000     1.906    91.906
   02/06/2018 15:45:00      3.310     0.000     1.844    91.844
  
  
  <<< Node J3 >>>
  ----------------------------------------------------------------
                           Inflow  Flooding     Depth      Head
  Date        Time            CFS       CFS      feet      feet
  ----------------------------------------------------------------
   02/06/2018 00:15:00      3.014     0.000     1.454    89.454
   02/06/2018 00:30:00      2.982     0.000     1.419    89.419
   02/06/2018 00:45:00      3.026     0.000     1.467    89.467
   02/06/2018 01:00:00      3.047     0.000     1.491    89.491
   02/06/2018 01:15:00      3.052     0.000     1.496    89.496
   02/06/2018 01:30:00      3.050     0.000     1.493    89.493
   02/06/2018 01:45:00      3.043     0.000     1.486    89.486
   02/06/2018 02:00:00      3.033     0.000     1.475    89.475
   02/06/2018 02:15:00      3.021     0.000     1.461    89.461
   02/06/2018 02:30:00      3.006     0.000     1.444    89.444
   02/06/2018 02:45:00      2.990     0.000     1.426    89.426
   02/06/2018 03:00:00      2.972     0.000     1.407    89.407
   02/06/2018 03:15:00      2.954     0.000     1.386    89.386
   02/06/2018 03:30:00      3.014     0.000     1.454    89.454
   02/06/2018 03:45:00      3.013     0.000     1.453    89.453
   02/06/2018 04:00:00      2.993     0.000     1.430    89.430
   02/06/2018 04:15:00      2.965     0.000     1.398    89.398
   02/06/2018 04:30:00      2.952     0.000     1.385    89.385
   02/06/2018 04:45:00      2.960     0.000     1.394    89.394
   02/06/2018 05:00:00      2.985     0.000     1.422    89.422
   02/06/2018 05:15:00      3.017     0.000     1.457    89.457
   02/06/2018 05:30:00      2.981     0.000     1.418    89.418
   02/06/2018 05:45:00      3.062     0.000     1.509    89.509
   02/06/2018 06:00:00      3.155     0.000     1.615    89.615
   02/06/2018 06:15:00      3.250     0.000     1.728    89.728
   02/06/2018 06:30:00      3.339     0.000     1.837    89.837
   02/06/2018 06:45:00      3.425     0.000     1.943    89.943
   02/06/2018 07:00:00      3.533     0.062     2.000    90.000
   02/06/2018 07:15:00      3.659     0.187     2.000    90.000
   02/06/2018 07:30:00      3.760     0.289     2.000    90.000
   02/06/2018 07:45:00      3.845     0.374     2.000    90.000
   02/06/2018 08:00:00      3.920     0.449     2.000    90.000
   02/06/2018 08:15:00      3.982     0.511     2.000    90.000
   02/06/2018 08:30:00      4.025     0.554     2.000    90.000
   02/06/2018 08:45:00      4.058     0.586     2.000    90.000
   02/06/2018 09:00:00      4.082     0.611     2.000    90.000
   02/06/2018 09:15:00      4.095     0.624     2.000    90.000
   02/06/2018 09:30:00      4.095     0.624     2.000    90.000
   02/06/2018 09:45:00      4.084     0.613     2.000    90.000
   02/06/2018 10:00:00      4.067     0.596     2.000    90.000
   02/06/2018 10:15:00      4.045     0.574     2.000    90.000
   02/06/2018 10:30:00      4.018     0.547     2.000    90.000
   02/06/2018 10:45:00      3.989     0.518     2.000    90.000
   02/06/2018 11:00:00      3.957     0.486     2.000    90.000
   02/06/2018 11:15:00      3.924     0.453     2.000    90.000
   02/06/2018 11:30:00      3.889     0.418     2.000    90.000
   02/06/2018 11:45:00      3.852     0.381     2.000    90.000
   02/06/2018 12:00:00      3.815     0.344     2.000    90.000
   02/06/2018 12:15:00      3.776     0.305     2.000    90.000
   02/06/2018 12:30:00      3.737     0.266     2.000    90.000
   02/06/2018 12:45:00      3.697     0.227     2.000    90.000
   02/06/2018 13:00:00      3.657     0.186     2.000    90.000
   02/06/2018 13:15:00      3.616     0.146     2.000    90.000
   02/06/2018 13:30:00      3.575     0.104     2.000    90.000
   02/06/2018 13:45:00      3.534     0.063     2.000    90.000
   02/06/2018 14:00:00      3.492     0.021     2.000    90.000
   02/06/2018 14:15:00      3.459     0.000     1.984    89.984
   02/06/2018 14:30:00      3.434     0.000     1.953    89.953
   02/06/2018 14:45:00      3.410     0.000     1.923    89.923
   02/06/2018 15:00:00      3.385     0.000     1.892    89.892
   02/06/2018 15:15:00      3.361     0.000     1.862    89.862
   02/06/2018 15:30:00      3.336     0.000     1.831    89.831
   02/06/2018 15:45:00      3.311     0.000     1.801    89.801
  
  
  <<< Node Out1 >>>
  ----------------------------------------------------------------
                           Inflow  Flooding     Depth      Head
  Date        Time            CFS       CFS      feet      feet
  ----------------------------------------------------------------
   02/06/2018 00:15:00      3.013     0.000     0.744    87.744
   02/06/2018 00:30:00      2.982     0.000     0.740    87.740
   02/06/2018 00:45:00      3.026     0.000     0.745    87.745
   02/06/2018 01:00:00      3.047     0.000     0.748    87.748
   02/06/2018 01:15:00      3.052     0.000     0.748    87.748
   02/06/2018 01:30:00      3.050     0.000     0.748    87.748
   02/06/2018 01:45:00      3.043     0.000     0.747    87.747
   02/06/2018 02:00:00      3.033     0.000     0.746    87.746
   02/06/2018 02:15:00      3.021     0.000     0.745    87.745
   02/06/2018 02:30:00      3.006     0.000     0.743    87.743
   02/06/2018 02:45:00      2.990     0.000     0.741    87.741
   02/06/2018 03:00:00      2.972     0.000     0.739    87.739
   02/06/2018 03:15:00      2.954     0.000     0.736    87.736
   02/06/2018 03:30:00      3.014     0.000     0.744    87.744
   02/06/2018 03:45:00      3.014     0.000     0.744    87.744
   02/06/2018 04:00:00      2.993     0.000     0.741    87.741
   02/06/2018 04:15:00      2.965     0.000     0.738    87.738
   02/06/2018 04:30:00      2.952     0.000     0.736    87.736
   02/06/2018 04:45:00      2.960     0.000     0.737    87.737
   02/06/2018 05:00:00      2.985     0.000     0.740    87.740
   02/06/2018 05:15:00      3.016     0.000     0.744    87.744
   02/06/2018 05:30:00      2.980     0.000     0.740    87.740
   02/06/2018 05:45:00      3.062     0.000     0.750    87.750
   02/06/2018 06:00:00      3.155     0.000     0.761    87.761
   02/06/2018 06:15:00      3.249     0.000     0.771    87.771
   02/06/2018 06:30:00      3.339     0.000     0.781    87.781
   02/06/2018 06:45:00      3.424     0.000     0.791    87.791
   02/06/2018 07:00:00      3.471     0.000     0.796    87.796
   02/06/2018 07:15:00      3.471     0.000     0.796    87.796
   02/06/2018 07:30:00      3.471     0.000     0.796    87.796
   02/06/2018 07:45:00      3.471     0.000     0.796    87.796
   02/06/2018 08:00:00      3.471     0.000     0.796    87.796
   02/06/2018 08:15:00      3.471     0.000     0.796    87.796
   02/06/2018 08:30:00      3.471     0.000     0.796    87.796
   02/06/2018 08:45:00      3.471     0.000     0.796    87.796
   02/06/2018 09:00:00      3.471     0.000     0.796    87.796
   02/06/2018 09:15:00      3.471     0.000     0.796    87.796
   02/06/2018 09:30:00      3.471     0.000     0.796    87.796
   02/06/2018 09:45:00      3.471     0.000     0.796    87.796
   02/06/2018 10:00:00      3.471     0.000     0.796    87.796
   02/06/2018 10:15:00      3.471     0.000     0.796    87.796
   02/06/2018 10:30:00      3.471     0.000     0.796    87.796
   02/06/2018 10:45:00      3.471     0.000     0.796    87.796
   02/06/2018 11:00:00      3.471     0.000     0.796    87.796
   02/06/2018 11:15:00      3.471     0.000     0.796    87.796
   02/06/2018 11:30:00      3.471     0.000     0.796    87.796
   02/06/2018 11:45:00      3.471     0.000     0.796    87.796
   02/06/2018 12:00:00      3.471     0.000     0.796    87.796
   02/06/2018 12:15:00      3.471     0.000     0.796    87.796
   02/06/2018 12:30:00      3.471     0.000     0.796    87.796
   02/06/2018 12:45:00      3.471     0.000     0.796    87.796
   02/06/2018 13:00:00      3.471     0.000     0.796    87.796
   02/06/2018 13:15:00      3.471     0.000     0.796    87.796
   02/06/2018 13:30:00      3.471     0.000     0.796    87.796
   02/06/2018 13:45:00      3.471     0.000     0.796    87.796
   02/06/2018 14:00:00      3.471     0.000     0.796    87.796
   02/06/2018 14:15:00      3.459     0.000     0.795    87.795
   02/06/2018 14:30:00      3.435     0.000     0.792    87.792
   02/06/2018 14:45:00      3.410     0.000     0.789    87.789
   02/06/2018 15:00:00      3.386     0.000     0.787    87.787
   02/06/2018 15:15:00      3.361     0.000     0.784    87.784
   02/06/2018 15:30:00      3.336     0.000     0.781    87.781
   02/06/2018 15:45:00      3.311     0.000     0.778    87.778
  
  
  <<< Node St1 >>>
  ----------------------------------------------------------------
                           Inflow  Flooding     Depth      Head
  Date        Time            CFS       CFS      feet      feet
  ----------------------------------------------------------------
   02/06/2018 00:15:00     11.940     0.000     1.437    91.437
   02/06/2018 00:30:00      9.333     0.000     1.609    91.609
   02/06/2018 00:45:00      6.731     0.000     1.722    91.722
   02/06/2018 01:00:00      4.142     0.000     1.776    91.776
   02/06/2018 01:15:00      3.138     0.000     1.787    91.787
   02/06/2018 01:30:00      2.515     0.000     1.782    91.782
   02/06/2018 01:45:00      2.052     0.000     1.764    91.764
   02/06/2018 02:00:00      1.701     0.000     1.738    91.738
   02/06/2018 02:15:00      1.428     0.000     1.705    91.705
   02/06/2018 02:30:00      1.213     0.000     1.667    91.667
   02/06/2018 02:45:00      1.040     0.000     1.625    91.625
   02/06/2018 03:00:00      0.900     0.000     1.579    91.579
   02/06/2018 03:15:00      0.785     0.000     1.532    91.532
   02/06/2018 03:30:00      0.690     0.000     1.481    91.481
   02/06/2018 03:45:00      0.610     0.000     1.428    91.428
   02/06/2018 04:00:00      0.543     0.000     1.374    91.374
   02/06/2018 04:15:00      1.538     0.000     1.328    91.328
   02/06/2018 04:30:00      2.884     0.000     1.312    91.312
   02/06/2018 04:45:00      4.177     0.000     1.325    91.325
   02/06/2018 05:00:00      5.296     0.000     1.365    91.365
   02/06/2018 05:15:00      8.501     0.000     1.451    91.451
   02/06/2018 05:30:00     11.326     0.000     1.607    91.607
   02/06/2018 05:45:00     13.421     0.000     1.819    91.819
   02/06/2018 06:00:00     14.880     0.000     2.068    92.068
   02/06/2018 06:15:00     14.699     0.000     2.330    92.330
   02/06/2018 06:30:00     14.495     0.000     2.584    92.584
   02/06/2018 06:45:00     14.364     0.000     2.833    92.833
   02/06/2018 07:00:00     14.278     0.000     3.076    93.076
   02/06/2018 07:15:00     12.549     0.000     3.298    93.298
   02/06/2018 07:30:00     11.328     0.000     3.482    93.482
   02/06/2018 07:45:00     10.533     0.000     3.641    93.641
   02/06/2018 08:00:00     10.000     0.000     3.784    93.784
   02/06/2018 08:15:00      8.418     0.000     3.903    93.903
   02/06/2018 08:30:00      7.279     0.000     3.988    93.988
   02/06/2018 08:45:00      6.500     0.000     4.052    94.052
   02/06/2018 09:00:00      5.951     0.000     4.100    94.100
   02/06/2018 09:15:00      4.568     0.000     4.126    94.126
   02/06/2018 09:30:00      3.538     0.000     4.125    94.125
   02/06/2018 09:45:00      2.807     0.000     4.104    94.104
   02/06/2018 10:00:00      2.270     0.000     4.069    94.069
   02/06/2018 10:15:00      1.867     0.000     4.024    94.024
   02/06/2018 10:30:00      1.558     0.000     3.972    93.972
   02/06/2018 10:45:00      1.315     0.000     3.914    93.914
   02/06/2018 11:00:00      1.123     0.000     3.852    93.852
   02/06/2018 11:15:00      0.968     0.000     3.786    93.786
   02/06/2018 11:30:00      0.841     0.000     3.719    93.719
   02/06/2018 11:45:00      0.736     0.000     3.650    93.650
   02/06/2018 12:00:00      0.649     0.000     3.579    93.579
   02/06/2018 12:15:00      0.575     0.000     3.507    93.507
   02/06/2018 12:30:00      0.513     0.000     3.435    93.435
   02/06/2018 12:45:00      0.459     0.000     3.362    93.362
   02/06/2018 13:00:00      0.414     0.000     3.289    93.289
   02/06/2018 13:15:00      0.374     0.000     3.216    93.216
   02/06/2018 13:30:00      0.339     0.000     3.144    93.144
   02/06/2018 13:45:00      0.309     0.000     3.071    93.071
   02/06/2018 14:00:00      0.283     0.000     2.998    92.998
   02/06/2018 14:15:00      0.259     0.000     2.926    92.926
   02/06/2018 14:30:00      0.238     0.000     2.855    92.855
   02/06/2018 14:45:00      0.220     0.000     2.783    92.783
   02/06/2018 15:00:00      0.203     0.000     2.711    92.711
   02/06/2018 15:15:00      0.188     0.000     2.640    92.640
   02/06/2018 15:30:00      0.175     0.000     2.568    92.568
   02/06/2018 15:45:00      0.163     0.000     2.497    92.497
  
  
  ************
  Link Results
  ************
  
  <<< Link C1 >>>
  ----------------------------------------------------------------
                             Flow  Velocity     Depth  Capacity/
  Date        Time            CFS    ft/sec      feet   Setting 
  ----------------------------------------------------------------
   02/06/2018 00:15:00     11.940     5.560     1.293     0.684
   02/06/2018 00:30:00      9.333     5.168     1.118     0.575
   02/06/2018 00:45:00      6.731     4.701     0.931     0.456
   02/06/2018 01:00:00      4.142     4.094     0.716     0.322
   02/06/2018 01:15:00      3.138     3.769     0.622     0.265
   02/06/2018 01:30:00      2.515     3.537     0.555     0.226
   02/06/2018 01:45:00      2.052     3.339     0.500     0.196
   02/06/2018 02:00:00      1.701     3.168     0.455     0.171
   02/06/2018 02:15:00      1.428     3.012     0.417     0.151
   02/06/2018 02:30:00      1.213     2.878     0.384     0.134
   02/06/2018 02:45:00      1.040     2.759     0.355     0.120
   02/06/2018 03:00:00      0.900     2.640     0.331     0.109
   02/06/2018 03:15:00      0.785     2.545     0.309     0.098
   02/06/2018 03:30:00      0.690     2.459     0.289     0.089
   02/06/2018 03:45:00      0.610     2.373     0.272     0.082
   02/06/2018 04:00:00      0.543     2.288     0.258     0.075
   02/06/2018 04:15:00      1.538     3.053     0.435     0.160
   02/06/2018 04:30:00      2.884     3.655     0.598     0.251
   02/06/2018 04:45:00      4.177     4.064     0.725     0.327
   02/06/2018 05:00:00      5.296     4.355     0.821     0.387
   02/06/2018 05:15:00      8.501     4.986     1.067     0.543
   02/06/2018 05:30:00     11.326     5.440     1.259     0.663
   02/06/2018 05:45:00     13.421     5.727     1.397     0.746
   02/06/2018 06:00:00     14.880     5.902     1.497     0.803
   02/06/2018 06:15:00     14.699     5.889     1.482     0.794
   02/06/2018 06:30:00     14.495     5.866     1.468     0.787
   02/06/2018 06:45:00     14.364     5.850     1.459     0.781
   02/06/2018 07:00:00     14.278     5.840     1.453     0.778
   02/06/2018 07:15:00     12.549     5.634     1.335     0.709
   02/06/2018 07:30:00     11.328     5.461     1.255     0.660
   02/06/2018 07:45:00     10.533     5.343     1.202     0.627
   02/06/2018 08:00:00     10.000     5.260     1.166     0.605
   02/06/2018 08:15:00      8.418     5.005     1.056     0.535
   02/06/2018 08:30:00      7.279     4.793     0.974     0.483
   02/06/2018 08:45:00      6.500     4.638     0.915     0.446
   02/06/2018 09:00:00      5.951     4.519     0.873     0.419
   02/06/2018 09:15:00      4.568     4.198     0.756     0.346
   02/06/2018 09:30:00      3.538     3.900     0.662     0.289
   02/06/2018 09:45:00      2.807     3.651     0.587     0.245
   02/06/2018 10:00:00      2.270     3.438     0.526     0.210
   02/06/2018 10:15:00      1.867     3.250     0.477     0.183
   02/06/2018 10:30:00      1.558     3.091     0.435     0.160
   02/06/2018 10:45:00      1.315     2.941     0.400     0.142
   02/06/2018 11:00:00      1.123     2.819     0.369     0.127
   02/06/2018 11:15:00      0.968     2.699     0.343     0.114
   02/06/2018 11:30:00      0.841     2.591     0.320     0.103
   02/06/2018 11:45:00      0.736     2.502     0.299     0.094
   02/06/2018 12:00:00      0.649     2.418     0.281     0.085
   02/06/2018 12:15:00      0.575     2.330     0.265     0.079
   02/06/2018 12:30:00      0.513     2.248     0.251     0.073
   02/06/2018 12:45:00      0.459     2.183     0.237     0.067
   02/06/2018 13:00:00      0.414     2.124     0.225     0.062
   02/06/2018 13:15:00      0.374     2.069     0.214     0.058
   02/06/2018 13:30:00      0.339     2.016     0.204     0.054
   02/06/2018 13:45:00      0.309     1.961     0.195     0.050
   02/06/2018 14:00:00      0.283     1.906     0.187     0.047
   02/06/2018 14:15:00      0.259     1.854     0.179     0.044
   02/06/2018 14:30:00      0.238     1.805     0.173     0.042
   02/06/2018 14:45:00      0.220     1.758     0.167     0.040
   02/06/2018 15:00:00      0.203     1.733     0.160     0.037
   02/06/2018 15:15:00      0.188     1.701     0.153     0.035
   02/06/2018 15:30:00      0.175     1.670     0.147     0.033
   02/06/2018 15:45:00      0.163     1.642     0.142     0.032
  
  
  <<< Link C2 >>>
  ----------------------------------------------------------------
                             Flow  Velocity     Depth  Capacity/
  Date        Time            CFS    ft/sec      feet   Setting 
  ----------------------------------------------------------------
   02/06/2018 00:15:00      3.014     3.927     0.943     0.977
   02/06/2018 00:30:00      2.982     3.797     1.000     1.000
   02/06/2018 00:45:00      3.026     3.853     1.000     1.000
   02/06/2018 01:00:00      3.047     3.880     1.000     1.000
   02/06/2018 01:15:00      3.052     3.886     1.000     1.000
   02/06/2018 01:30:00      3.050     3.883     1.000     1.000
   02/06/2018 01:45:00      3.043     3.875     1.000     1.000
   02/06/2018 02:00:00      3.033     3.862     1.000     1.000
   02/06/2018 02:15:00      3.021     3.846     1.000     1.000
   02/06/2018 02:30:00      3.006     3.827     1.000     1.000
   02/06/2018 02:45:00      2.990     3.807     1.000     1.000
   02/06/2018 03:00:00      2.972     3.784     1.000     1.000
   02/06/2018 03:15:00      2.954     3.761     1.000     1.000
   02/06/2018 03:30:00      3.014     3.871     0.971     0.991
   02/06/2018 03:45:00      3.013     3.922     0.945     0.978
   02/06/2018 04:00:00      2.993     3.955     0.921     0.963
   02/06/2018 04:15:00      2.965     3.973     0.903     0.950
   02/06/2018 04:30:00      2.952     3.977     0.896     0.945
   02/06/2018 04:45:00      2.960     3.974     0.901     0.948
   02/06/2018 05:00:00      2.985     3.962     0.916     0.959
   02/06/2018 05:15:00      3.017     3.912     0.952     0.982
   02/06/2018 05:30:00      2.981     3.795     1.000     1.000
   02/06/2018 05:45:00      3.062     3.899     1.000     1.000
   02/06/2018 06:00:00      3.155     4.017     1.000     1.000
   02/06/2018 06:15:00      3.250     4.138     1.000     1.000
   02/06/2018 06:30:00      3.339     4.252     1.000     1.000
   02/06/2018 06:45:00      3.425     4.361     1.000     1.000
   02/06/2018 07:00:00      3.533     4.499     1.000     1.000
   02/06/2018 07:15:00      3.659     4.658     1.000     1.000
   02/06/2018 07:30:00      3.760     4.787     1.000     1.000
   02/06/2018 07:45:00      3.845     4.896     1.000     1.000
   02/06/2018 08:00:00      3.920     4.992     1.000     1.000
   02/06/2018 08:15:00      3.982     5.070     1.000     1.000
   02/06/2018 08:30:00      4.025     5.125     1.000     1.000
   02/06/2018 08:45:00      4.058     5.166     1.000     1.000
   02/06/2018 09:00:00      4.082     5.197     1.000     1.000
   02/06/2018 09:15:00      4.095     5.214     1.000     1.000
   02/06/2018 09:30:00      4.095     5.213     1.000     1.000
   02/06/2018 09:45:00      4.084     5.200     1.000     1.000
   02/06/2018 10:00:00      4.067     5.178     1.000     1.000
   02/06/2018 10:15:00      4.045     5.150     1.000     1.000
   02/06/2018 10:30:00      4.018     5.116     1.000     1.000
   02/06/2018 10:45:00      3.989     5.079     1.000     1.000
   02/06/2018 11:00:00      3.957     5.038     1.000     1.000
   02/06/2018 11:15:00      3.924     4.996     1.000     1.000
   02/06/2018 11:30:00      3.889     4.951     1.000     1.000
   02/06/2018 11:45:00      3.852     4.905     1.000     1.000
   02/06/2018 12:00:00      3.815     4.857     1.000     1.000
   02/06/2018 12:15:00      3.776     4.808     1.000     1.000
   02/06/2018 12:30:00      3.737     4.758     1.000     1.000
   02/06/2018 12:45:00      3.697     4.708     1.000     1.000
   02/06/2018 13:00:00      3.657     4.657     1.000     1.000
   02/06/2018 13:15:00      3.616     4.605     1.000     1.000
   02/06/2018 13:30:00      3.575     4.552     1.000     1.000
   02/06/2018 13:45:00      3.534     4.499     1.000     1.000
   02/06/2018 14:00:00      3.492     4.446     1.000     1.000
   02/06/2018 14:15:00      3.459     4.404     1.000     1.000
   02/06/2018 14:30:00      3.434     4.373     1.000     1.000
   02/06/2018 14:45:00      3.410     4.342     1.000     1.000
   02/06/2018 15:00:00      3.385     4.310     1.000     1.000
   02/06/2018 15:15:00      3.361     4.279     1.000     1.000
   02/06/2018 15:30:00      3.336     4.248     1.000     1.000
   02/06/2018 15:45:00      3.311     4.216     1.000     1.000
  
  
  <<< Link C3 >>>
  ----------------------------------------------------------------
                             Flow  Velocity     Depth  Capacity/
  Date        Time            CFS    ft/sec      feet   Setting 
  ----------------------------------------------------------------
   02/06/2018 00:15:00      3.013     4.147     0.872     0.925
   02/06/2018 00:30:00      2.982     4.111     0.870     0.923
   02/06/2018 00:45:00      3.026     4.162     0.873     0.926
   02/06/2018 01:00:00      3.047     4.186     0.874     0.927
   02/06/2018 01:15:00      3.052     4.191     0.874     0.927
   02/06/2018 01:30:00      3.050     4.189     0.874     0.927
   02/06/2018 01:45:00      3.043     4.182     0.874     0.927
   02/06/2018 02:00:00      3.033     4.171     0.873     0.926
   02/06/2018 02:15:00      3.021     4.156     0.872     0.925
   02/06/2018 02:30:00      3.006     4.139     0.871     0.925
   02/06/2018 02:45:00      2.990     4.121     0.870     0.924
   02/06/2018 03:00:00      2.972     4.101     0.869     0.923
   02/06/2018 03:15:00      2.954     4.079     0.868     0.922
   02/06/2018 03:30:00      3.014     4.149     0.872     0.925
   02/06/2018 03:45:00      3.014     4.148     0.872     0.925
   02/06/2018 04:00:00      2.993     4.125     0.871     0.924
   02/06/2018 04:15:00      2.965     4.092     0.869     0.923
   02/06/2018 04:30:00      2.952     4.077     0.868     0.922
   02/06/2018 04:45:00      2.960     4.087     0.869     0.922
   02/06/2018 05:00:00      2.985     4.115     0.870     0.924
   02/06/2018 05:15:00      3.016     4.151     0.872     0.925
   02/06/2018 05:30:00      2.980     4.110     0.870     0.923
   02/06/2018 05:45:00      3.062     4.203     0.875     0.928
   02/06/2018 06:00:00      3.155     4.308     0.880     0.932
   02/06/2018 06:15:00      3.249     4.418     0.886     0.937
   02/06/2018 06:30:00      3.339     4.520     0.891     0.940
   02/06/2018 06:45:00      3.424     4.617     0.895     0.944
   02/06/2018 07:00:00      3.471     4.670     0.898     0.946
   02/06/2018 07:15:00      3.471     4.670     0.898     0.946
   02/06/2018 07:30:00      3.471     4.670     0.898     0.946
   02/06/2018 07:45:00      3.471     4.670     0.898     0.946
   02/06/2018 08:00:00      3.471     4.670     0.898     0.946
   02/06/2018 08:15:00      3.471     4.670     0.898     0.946
   02/06/2018 08:30:00      3.471     4.670     0.898     0.946
   02/06/2018 08:45:00      3.471     4.670     0.898     0.946
   02/06/2018 09:00:00      3.471     4.670     0.898     0.946
   02/06/2018 09:15:00      3.471     4.670     0.898     0.946
   02/06/2018 09:30:00      3.471     4.670     0.898     0.946
   02/06/2018 09:45:00      3.471     4.670     0.898     0.946
   02/06/2018 10:00:00      3.471     4.670     0.898     0.946
   02/06/2018 10:15:00      3.471     4.670     0.898     0.946
   02/06/2018 10:30:00      3.471     4.670     0.898     0.946
   02/06/2018 10:45:00      3.471     4.670     0.898     0.946
   02/06/2018 11:00:00      3.471     4.670     0.898     0.946
   02/06/2018 11:15:00      3.471     4.670     0.898     0.946
   02/06/2018 11:30:00      3.471     4.670     0.898     0.946
   02/06/2018 11:45:00      3.471     4.670     0.898     0.946
   02/06/2018 12:00:00      3.471     4.670     0.898     0.946
   02/06/2018 12:15:00      3.471     4.670     0.898     0.946
   02/06/2018 12:30:00      3.471     4.670     0.898     0.946
   02/06/2018 12:45:00      3.471     4.670     0.898     0.946
   02/06/2018 13:00:00      3.471     4.670     0.898     0.946
   02/06/2018 13:15:00      3.471     4.670     0.898     0.946
   02/06/2018 13:30:00      3.471     4.670     0.898     0.946
   02/06/2018 13:45:00      3.471     4.670     0.898     0.946
   02/06/2018 14:00:00      3.471     4.670     0.898     0.946
   02/06/2018 14:15:00      3.459     4.656     0.897     0.946
   02/06/2018 14:30:00      3.435     4.629     0.896     0.945
   02/06/2018 14:45:00      3.410     4.601     0.895     0.944
   02/06/2018 15:00:00      3.386     4.573     0.893     0.943
   02/06/2018 15:15:00      3.361     4.545     0.892     0.941
   02/06/2018 15:30:00      3.336     4.517     0.891     0.940
   02/06/2018 15:45:00      3.311     4.489     0.889     0.939
  
  
  <<< Link R1 >>>
  ----------------------------------------------------------------
                             Flow  Velocity     Depth  Capacity/
  Date        Time            CFS    ft/sec      feet   Setting 
  ----------------------------------------------------------------
   02/06/2018 00:15:00      3.039     0.000     1.000     1.000
   02/06/2018 00:30:00      2.986     0.000     1.000     1.000
   02/06/2018 00:45:00      3.028     0.000     1.000     1.000
   02/06/2018 01:00:00      3.048     0.000     1.000     1.000
   02/06/2018 01:15:00      3.052     0.000     1.000     1.000
   02/06/2018 01:30:00      3.050     0.000     1.000     1.000
   02/06/2018 01:45:00      3.043     0.000     1.000     1.000
   02/06/2018 02:00:00      3.033     0.000     1.000     1.000
   02/06/2018 02:15:00      3.020     0.000     1.000     1.000
   02/06/2018 02:30:00      3.005     0.000     1.000     1.000
   02/06/2018 02:45:00      2.989     0.000     1.000     1.000
   02/06/2018 03:00:00      2.971     0.000     1.000     1.000
   02/06/2018 03:15:00      2.952     0.000     1.000     1.000
   02/06/2018 03:30:00      3.008     0.000     1.000     1.000
   02/06/2018 03:45:00      3.007     0.000     1.000     1.000
   02/06/2018 04:00:00      2.986     0.000     1.000     1.000
   02/06/2018 04:15:00      2.960     0.000     1.000     1.000
   02/06/2018 04:30:00      2.951     0.000     1.000     1.000
   02/06/2018 04:45:00      2.964     0.000     1.000     1.000
   02/06/2018 05:00:00      2.992     0.000     1.000     1.000
   02/06/2018 05:15:00      3.031     0.000     1.000     1.000
   02/06/2018 05:30:00      2.987     0.000     1.000     1.000
   02/06/2018 05:45:00      3.067     0.000     1.000     1.000
   02/06/2018 06:00:00      3.161     0.000     1.000     1.000
   02/06/2018 06:15:00      3.255     0.000     1.000     1.000
   02/06/2018 06:30:00      3.344     0.000     1.000     1.000
   02/06/2018 06:45:00      3.429     0.000     1.000     1.000
   02/06/2018 07:00:00      3.537     0.000     1.000     1.000
   02/06/2018 07:15:00      3.662     0.000     1.000     1.000
   02/06/2018 07:30:00      3.763     0.000     1.000     1.000
   02/06/2018 07:45:00      3.848     0.000     1.000     1.000
   02/06/2018 08:00:00      3.923     0.000     1.000     1.000
   02/06/2018 08:15:00      3.983     0.000     1.000     1.000
   02/06/2018 08:30:00      4.027     0.000     1.000     1.000
   02/06/2018 08:45:00      4.058     0.000     1.000     1.000
   02/06/2018 09:00:00      4.082     0.000     1.000     1.000
   02/06/2018 09:15:00      4.095     0.000     1.000     1.000
   02/06/2018 09:30:00      4.094     0.000     1.000     1.000
   02/06/2018 09:45:00      4.084     0.000     1.000     1.000
   02/06/2018 10:00:00      4.066     0.000     1.000     1.000
   02/06/2018 10:15:00      4.044     0.000     1.000     1.000
   02/06/2018 10:30:00      4.017     0.000     1.000     1.000
   02/06/2018 10:45:00      3.988     0.000     1.000     1.000
   02/06/2018 11:00:00      3.956     0.000     1.000     1.000
   02/06/2018 11:15:00      3.923     0.000     1.000     1.000
   02/06/2018 11:30:00      3.887     0.000     1.000     1.000
   02/06/2018 11:45:00      3.851     0.000     1.000     1.000
   02/06/2018 12:00:00      3.813     0.000     1.000     1.000
   02/06/2018 12:15:00      3.775     0.000     1.000     1.000
   02/06/2018 12:30:00      3.736     0.000     1.000     1.000
   02/06/2018 12:45:00      3.696     0.000     1.000     1.000
   02/06/2018 13:00:00      3.656     0.000     1.000     1.000
   02/06/2018 13:15:00      3.615     0.000     1.000     1.000
   02/06/2018 13:30:00      3.574     0.000     1.000     1.000
   02/06/2018 13:45:00      3.532     0.000     1.000     1.000
   02/06/2018 14:00:00      3.491     0.000     1.000     1.000
   02/06/2018 14:15:00      3.457     0.000     1.000     1.000
   02/06/2018 14:30:00      3.433     0.000     1.000     1.000
   02/06/2018 14:45:00      3.409     0.000     1.000     1.000
   02/06/2018 15:00:00      3.384     0.000     1.000     1.000
   02/06/2018 15:15:00      3.359     0.000     1.000     1.000
   02/06/2018 15:30:00      3.335     0.000     1.000     1.000
   02/06/2018 15:45:00      3.310     0.000     1.000     1.000
  

  Analysis begun on:  Mon Apr 23 13:42:37 2018
  Analysis ended on:  Mon Apr 23 13:42:37 2018
  Total elapsed time: < 1 sec