
  EPA STORM WATER MANAGEMENT MODEL - VERSION 5.1 (Build 5.1.012)
  --------------------------------------------------------------

  
  *********************************************************
  NOTE: The summary statistics displayed in this report are
  based on results found at every computational time step,  
  not just on results from each reporting time step.
  *********************************************************
  
  ****************
  Analysis Options
  ****************
  Flow Units ............... CFS
  Process Models:
    Rainfall/Runoff ........ YES
    RDII ................... NO
    Snowmelt ............... NO
    Groundwater ............ NO
    Flow Routing ........... YES
    Ponding Allowed ........ NO
    Water Quality .......... NO
  Infiltration Method ...... MODIFIED_GREEN_AMPT
  Flow Routing Method ...... DYNWAVE
  Starting Date ............ 02/06/2018 00:00:00
  Ending Date .............. 02/06/2018 16:00:00
  Antecedent Dry Days ...... 0.0
  Report Time Step ......... 00:15:00
  Wet Time Step ............ 00:05:00
  Dry Time Step ............ 01:00:00
  Routing Time Step ........ 10.00 sec
  Variable Time Step ....... YES
  Maximum Trials ........... 8
  Number of Threads ........ 1
  Head Tolerance ........... 0.005000 ft
  
  
  **************************        Volume         Depth
  Runoff Quantity Continuity     acre-feet        inches
  **************************     ---------       -------
  Initial LID Storage ......         1.266         0.217
  Total Precipitation ......         8.896         1.525
  Evaporation Loss .........         0.000         0.000
  Infiltration Loss ........         4.448         0.762
  Surface Runoff ...........         5.213         0.894
  Final Storage ............         0.184         0.032
  Continuity Error (%) .....         3.117
  
  
  **************************        Volume        Volume
  Flow Routing Continuity        acre-feet      10^6 gal
  **************************     ---------     ---------
  Dry Weather Inflow .......         0.000         0.000
  Wet Weather Inflow .......         5.661         1.845
  Groundwater Inflow .......         0.000         0.000
  RDII Inflow ..............         0.000         0.000
  External Inflow ..........         0.000         0.000
  External Outflow .........         4.336         1.413
  Flooding Loss ............         0.233         0.076
  Evaporation Loss .........         0.000         0.000
  Exfiltration Loss ........         0.000         0.000
  Initial Stored Volume ....         1.157         0.377
  Final Stored Volume ......         2.251         0.733
  Continuity Error (%) .....        -0.022
  
  
  ***************************
  Time-Step Critical Elements
  ***************************
  None
  
  
  ********************************
  Highest Flow Instability Indexes
  ********************************
  All links are stable.
  
  
  *************************
  Routing Time Step Summary
  *************************
  Minimum Time Step           :     1.20 sec
  Average Time Step           :     9.99 sec
  Maximum Time Step           :    10.00 sec
  Percent in Steady State     :    -0.00
  Average Iterations per Step :     2.00
  Percent Not Converging      :     0.00
  
  
  ***************************
  Subcatchment Runoff Summary
  ***************************
  
  --------------------------------------------------------------------------------------------------------
                            Total      Total      Total      Total      Total       Total     Peak  Runoff
                           Precip      Runon       Evap      Infil     Runoff      Runoff   Runoff   Coeff
  Subcatchment                 in         in         in         in         in    10^6 gal      CFS
  --------------------------------------------------------------------------------------------------------
  S1                         1.52       0.00       0.00       0.76       0.89        1.70    14.98   0.586
  
  
  ******************
  Node Depth Summary
  ******************
  
  ---------------------------------------------------------------------------------
                                 Average  Maximum  Maximum  Time of Max    Reported
                                   Depth    Depth      HGL   Occurrence   Max Depth
  Node                 Type         Feet     Feet     Feet  days hr:min        Feet
  ---------------------------------------------------------------------------------
  J1                   JUNCTION     0.65     1.61    97.61     0  06:01        1.60
  J2                   JUNCTION     1.99     3.14    93.14     0  09:21        3.14
  J3                   JUNCTION     1.77     2.00    90.00     0  06:52        2.00
  Out1                 OUTFALL      0.77     0.80    87.80     0  06:59        0.80
  St1                  STORAGE      2.72     4.14    94.14     0  09:21        4.14
  
  
  *******************
  Node Inflow Summary
  *******************
  
  -------------------------------------------------------------------------------------------------
                                  Maximum  Maximum                  Lateral       Total        Flow
                                  Lateral    Total  Time of Max      Inflow      Inflow     Balance
                                   Inflow   Inflow   Occurrence      Volume      Volume       Error
  Node                 Type           CFS      CFS  days hr:min    10^6 gal    10^6 gal     Percent
  -------------------------------------------------------------------------------------------------
  J1                   JUNCTION     14.98    14.98     0  06:00        1.84        1.84      -0.410
  J2                   JUNCTION      0.00     4.10     0  09:20           0        1.49       0.027
  J3                   JUNCTION      0.00     4.10     0  09:21           0        1.49       0.002
  Out1                 OUTFALL       0.00     3.47     0  06:59           0        1.41       0.000
  St1                  STORAGE       0.00    14.96     0  06:01           0        2.22      -0.002
  
  
  **********************
  Node Surcharge Summary
  **********************
  
  Surcharging occurs when water rises above the top of the highest conduit.
  ---------------------------------------------------------------------
                                               Max. Height   Min. Depth
                                   Hours       Above Crown    Below Rim
  Node                 Type      Surcharged           Feet         Feet
  ---------------------------------------------------------------------
  J2                   JUNCTION       13.67          2.137        1.863
  J3                   JUNCTION       16.00          1.000        0.000
  
  
  *********************
  Node Flooding Summary
  *********************
  
  Flooding refers to all water that overflows a node, whether it ponds or not.
  --------------------------------------------------------------------------
                                                             Total   Maximum
                                 Maximum   Time of Max       Flood    Ponded
                        Hours       Rate    Occurrence      Volume     Depth
  Node                 Flooded       CFS   days hr:min    10^6 gal      Feet
  --------------------------------------------------------------------------
  J3                      7.28      0.63      0  09:21       0.076     0.000
  
  
  **********************
  Storage Volume Summary
  **********************
  
  --------------------------------------------------------------------------------------------------
                         Average     Avg  Evap Exfil       Maximum     Max    Time of Max    Maximum
                          Volume    Pcnt  Pcnt  Pcnt        Volume    Pcnt     Occurrence    Outflow
  Storage Unit          1000 ft3    Full  Loss  Loss      1000 ft3    Full    days hr:min        CFS
  --------------------------------------------------------------------------------------------------
  St1                    108.602      54     0     0       165.579      83       0  09:21       4.10
  
  
  ***********************
  Outfall Loading Summary
  ***********************
  
  -----------------------------------------------------------
                         Flow       Avg       Max       Total
                         Freq      Flow      Flow      Volume
  Outfall Node           Pcnt       CFS       CFS    10^6 gal
  -----------------------------------------------------------
  Out1                 100.00      3.28      3.47       1.413
  -----------------------------------------------------------
  System               100.00      3.28      3.47       1.413
  
  
  ********************
  Link Flow Summary
  ********************
  
  -----------------------------------------------------------------------------
                                 Maximum  Time of Max   Maximum    Max/    Max/
                                  |Flow|   Occurrence   |Veloc|    Full    Full
  Link                 Type          CFS  days hr:min    ft/sec    Flow   Depth
  -----------------------------------------------------------------------------
  C1                   CONDUIT     14.96     0  06:01      5.92    1.02    0.75
  C2                   CONDUIT      4.10     0  09:21      5.22    1.25    1.00
  C3                   CONDUIT      3.47     0  06:59      4.67    1.50    0.90
  R1                   ORIFICE      4.10     0  09:20                          
  
  
  ***************************
  Flow Classification Summary
  ***************************
  
  -------------------------------------------------------------------------------------
                      Adjusted    ---------- Fraction of Time in Flow Class ---------- 
                       /Actual         Up    Down  Sub   Sup   Up    Down  Norm  Inlet 
  Conduit               Length    Dry  Dry   Dry   Crit  Crit  Crit  Crit  Ltd   Ctrl  
  -------------------------------------------------------------------------------------
  C1                      1.00   0.00  0.00  0.00  0.00  0.00  0.00  1.00  0.00  0.00
  C2                      1.00   0.00  0.00  0.00  1.00  0.00  0.00  0.00  0.00  0.00
  C3                      1.00   0.00  0.00  0.00  1.00  0.00  0.00  0.00  0.00  0.00
  
  
  *************************
  Conduit Surcharge Summary
  *************************
  
  ----------------------------------------------------------------------------
                                                           Hours        Hours 
                         --------- Hours Full --------   Above Full   Capacity
  Conduit                Both Ends  Upstream  Dnstream   Normal Flow   Limited
  ----------------------------------------------------------------------------
  C1                          0.01      0.01      0.01      0.28         0.01
  C2                         13.67     13.67     16.00      9.69         9.70
  C3                          0.01     16.00      0.01     16.00         0.01
  
  
  ********************
  Subcatchment Results
  ********************
  
  <<< Subcatchment S1 >>>
  ---------------------------------------------------
  Date        Time        Precip.    Losses    Runoff
                            in/hr     in/hr       CFS
  ---------------------------------------------------
   02/06/2018 00:15:00      0.000     0.000   11.7375
   02/06/2018 00:30:00      0.000     0.000    9.1261
   02/06/2018 00:45:00      0.000     0.000    6.5146
   02/06/2018 01:00:00      0.000     0.000    3.9031
   02/06/2018 01:15:00      0.000     0.000    3.0653
   02/06/2018 01:30:00      0.000     0.000    2.4591
   02/06/2018 01:45:00      0.000     0.000    2.0084
   02/06/2018 02:00:00      0.000     0.000    1.6654
   02/06/2018 02:15:00      0.000     0.000    1.3991
   02/06/2018 02:30:00      0.000     0.000    1.1888
   02/06/2018 02:45:00      0.000     0.000    1.0202
   02/06/2018 03:00:00      0.000     0.000    0.8833
   02/06/2018 03:15:00      0.000     0.000    0.7708
   02/06/2018 03:30:00      0.000     0.000    0.6774
   02/06/2018 03:45:00      0.000     0.000    0.5991
   02/06/2018 04:00:00      0.250     0.125    0.5329
   02/06/2018 04:15:00      0.250     0.125    1.6877
   02/06/2018 04:30:00      0.250     0.125    3.0187
   02/06/2018 04:45:00      0.250     0.125    4.2896
   02/06/2018 05:00:00      0.500     0.250    5.3854
   02/06/2018 05:15:00      0.500     0.250    8.7582
   02/06/2018 05:30:00      0.500     0.250   11.5211
   02/06/2018 05:45:00      0.500     0.250   13.5622
   02/06/2018 06:00:00      0.400     0.200   14.9807
   02/06/2018 06:15:00      0.400     0.200   14.6775
   02/06/2018 06:30:00      0.400     0.200   14.4818
   02/06/2018 06:45:00      0.400     0.200   14.3549
   02/06/2018 07:00:00      0.250     0.125   14.2723
   02/06/2018 07:15:00      0.250     0.125   12.4254
   02/06/2018 07:30:00      0.250     0.125   11.2504
   02/06/2018 07:45:00      0.250     0.125   10.4802
   02/06/2018 08:00:00      0.125     0.062    9.9648
   02/06/2018 08:15:00      0.125     0.062    8.3037
   02/06/2018 08:30:00      0.125     0.062    7.2009
   02/06/2018 08:45:00      0.125     0.062    6.4437
   02/06/2018 09:00:00      0.000     0.000    5.9102
   02/06/2018 09:15:00      0.000     0.000    4.4540
   02/06/2018 09:30:00      0.000     0.000    3.4546
   02/06/2018 09:45:00      0.000     0.000    2.7431
   02/06/2018 10:00:00      0.000     0.000    2.2209
   02/06/2018 10:15:00      0.000     0.000    1.8280
   02/06/2018 10:30:00      0.000     0.000    1.5259
   02/06/2018 10:45:00      0.000     0.000    1.2894
   02/06/2018 11:00:00      0.000     0.000    1.1012
   02/06/2018 11:15:00      0.000     0.000    0.9493
   02/06/2018 11:30:00      0.000     0.000    0.8251
   02/06/2018 11:45:00      0.000     0.000    0.7226
   02/06/2018 12:00:00      0.000     0.000    0.6371
   02/06/2018 12:15:00      0.000     0.000    0.5651
   02/06/2018 12:30:00      0.000     0.000    0.5040
   02/06/2018 12:45:00      0.000     0.000    0.4517
   02/06/2018 13:00:00      0.000     0.000    0.4068
   02/06/2018 13:15:00      0.000     0.000    0.3678
   02/06/2018 13:30:00      0.000     0.000    0.3339
   02/06/2018 13:45:00      0.000     0.000    0.3042
   02/06/2018 14:00:00      0.000     0.000    0.2781
   02/06/2018 14:15:00      0.000     0.000    0.2550
   02/06/2018 14:30:00      0.000     0.000    0.2345
   02/06/2018 14:45:00      0.000     0.000    0.2163
   02/06/2018 15:00:00      0.000     0.000    0.1999
   02/06/2018 15:15:00      0.000     0.000    0.1853
   02/06/2018 15:30:00      0.000     0.000    0.1721
   02/06/2018 15:45:00      0.000     0.000    0.1602
  
  
  ************
  Node Results
  ************
  
  <<< Node J1 >>>
  ----------------------------------------------------------------
                           Inflow  Flooding     Depth      Head
  Date        Time            CFS       CFS      feet      feet
  ----------------------------------------------------------------
   02/06/2018 00:15:00     11.767     0.000     1.345    97.345
   02/06/2018 00:30:00      9.155     0.000     1.145    97.145
   02/06/2018 00:45:00      6.544     0.000     0.942    96.942
   02/06/2018 01:00:00      3.931     0.000     0.719    96.719
   02/06/2018 01:15:00      3.073     0.000     0.625    96.625
   02/06/2018 01:30:00      2.465     0.000     0.558    96.558
   02/06/2018 01:45:00      2.013     0.000     0.504    96.504
   02/06/2018 02:00:00      1.669     0.000     0.459    96.459
   02/06/2018 02:15:00      1.402     0.000     0.421    96.421
   02/06/2018 02:30:00      1.191     0.000     0.389    96.389
   02/06/2018 02:45:00      1.022     0.000     0.361    96.361
   02/06/2018 03:00:00      0.885     0.000     0.336    96.336
   02/06/2018 03:15:00      0.772     0.000     0.315    96.315
   02/06/2018 03:30:00      0.678     0.000     0.296    96.296
   02/06/2018 03:45:00      0.600     0.000     0.280    96.280
   02/06/2018 04:00:00      0.533     0.000     0.264    96.264
   02/06/2018 04:15:00      1.677     0.000     0.442    96.442
   02/06/2018 04:30:00      3.008     0.000     0.605    96.605
   02/06/2018 04:45:00      4.279     0.000     0.733    96.733
   02/06/2018 05:00:00      5.377     0.000     0.832    96.832
   02/06/2018 05:15:00      8.732     0.000     1.095    97.095
   02/06/2018 05:30:00     11.494     0.000     1.310    97.310
   02/06/2018 05:45:00     13.543     0.000     1.476    97.476
   02/06/2018 06:00:00     14.968     0.000     1.604    97.604
   02/06/2018 06:15:00     14.680     0.000     1.583    97.583
   02/06/2018 06:30:00     14.484     0.000     1.564    97.564
   02/06/2018 06:45:00     14.356     0.000     1.553    97.553
   02/06/2018 07:00:00     14.273     0.000     1.545    97.545
   02/06/2018 07:15:00     12.442     0.000     1.396    97.396
   02/06/2018 07:30:00     11.261     0.000     1.302    97.302
   02/06/2018 07:45:00     10.487     0.000     1.241    97.241
   02/06/2018 08:00:00      9.970     0.000     1.201    97.201
   02/06/2018 08:15:00      8.319     0.000     1.077    97.077
   02/06/2018 08:30:00      7.211     0.000     0.990    96.990
   02/06/2018 08:45:00      6.451     0.000     0.928    96.928
   02/06/2018 09:00:00      5.915     0.000     0.884    96.884
   02/06/2018 09:15:00      4.467     0.000     0.762    96.762
   02/06/2018 09:30:00      3.464     0.000     0.666    96.666
   02/06/2018 09:45:00      2.750     0.000     0.591    96.591
   02/06/2018 10:00:00      2.226     0.000     0.530    96.530
   02/06/2018 10:15:00      1.832     0.000     0.481    96.481
   02/06/2018 10:30:00      1.529     0.000     0.439    96.439
   02/06/2018 10:45:00      1.292     0.000     0.404    96.404
   02/06/2018 11:00:00      1.103     0.000     0.374    96.374
   02/06/2018 11:15:00      0.951     0.000     0.348    96.348
   02/06/2018 11:30:00      0.826     0.000     0.325    96.325
   02/06/2018 11:45:00      0.724     0.000     0.305    96.305
   02/06/2018 12:00:00      0.638     0.000     0.288    96.288
   02/06/2018 12:15:00      0.566     0.000     0.272    96.272
   02/06/2018 12:30:00      0.505     0.000     0.257    96.257
   02/06/2018 12:45:00      0.452     0.000     0.244    96.244
   02/06/2018 13:00:00      0.407     0.000     0.233    96.233
   02/06/2018 13:15:00      0.368     0.000     0.222    96.222
   02/06/2018 13:30:00      0.334     0.000     0.212    96.212
   02/06/2018 13:45:00      0.305     0.000     0.203    96.203
   02/06/2018 14:00:00      0.278     0.000     0.195    96.195
   02/06/2018 14:15:00      0.255     0.000     0.187    96.187
   02/06/2018 14:30:00      0.235     0.000     0.180    96.180
   02/06/2018 14:45:00      0.216     0.000     0.173    96.173
   02/06/2018 15:00:00      0.200     0.000     0.167    96.167
   02/06/2018 15:15:00      0.185     0.000     0.162    96.162
   02/06/2018 15:30:00      0.172     0.000     0.156    96.156
   02/06/2018 15:45:00      0.160     0.000     0.151    96.151
  
  
  <<< Node J2 >>>
  ----------------------------------------------------------------
                           Inflow  Flooding     Depth      Head
  Date        Time            CFS       CFS      feet      feet
  ----------------------------------------------------------------
   02/06/2018 00:15:00      3.042     0.000     0.901    90.901
   02/06/2018 00:30:00      2.992     0.000     1.091    91.091
   02/06/2018 00:45:00      3.034     0.000     1.189    91.189
   02/06/2018 01:00:00      3.053     0.000     1.235    91.235
   02/06/2018 01:15:00      3.057     0.000     1.245    91.245
   02/06/2018 01:30:00      3.055     0.000     1.240    91.240
   02/06/2018 01:45:00      3.048     0.000     1.225    91.225
   02/06/2018 02:00:00      3.038     0.000     1.202    91.202
   02/06/2018 02:15:00      3.025     0.000     1.174    91.174
   02/06/2018 02:30:00      3.010     0.000     1.141    91.141
   02/06/2018 02:45:00      2.994     0.000     1.104    91.104
   02/06/2018 03:00:00      2.976     0.000     1.065    91.065
   02/06/2018 03:15:00      2.957     0.000     1.024    91.024
   02/06/2018 03:30:00      2.999     0.000     0.959    90.959
   02/06/2018 03:45:00      3.009     0.000     0.903    90.903
   02/06/2018 04:00:00      2.992     0.000     0.854    90.854
   02/06/2018 04:15:00      2.969     0.000     0.817    90.817
   02/06/2018 04:30:00      2.961     0.000     0.802    90.802
   02/06/2018 04:45:00      2.972     0.000     0.811    90.811
   02/06/2018 05:00:00      2.999     0.000     0.842    90.842
   02/06/2018 05:15:00      3.033     0.000     0.915    90.915
   02/06/2018 05:30:00      2.991     0.000     1.088    91.088
   02/06/2018 05:45:00      3.072     0.000     1.270    91.270
   02/06/2018 06:00:00      3.165     0.000     1.485    91.485
   02/06/2018 06:15:00      3.259     0.000     1.710    91.710
   02/06/2018 06:30:00      3.349     0.000     1.929    91.929
   02/06/2018 06:45:00      3.434     0.000     2.143    92.143
   02/06/2018 07:00:00      3.544     0.000     2.341    92.341
   02/06/2018 07:15:00      3.669     0.000     2.508    92.508
   02/06/2018 07:30:00      3.769     0.000     2.647    92.647
   02/06/2018 07:45:00      3.854     0.000     2.768    92.768
   02/06/2018 08:00:00      3.929     0.000     2.877    92.877
   02/06/2018 08:15:00      3.989     0.000     2.966    92.966
   02/06/2018 08:30:00      4.032     0.000     3.031    93.031
   02/06/2018 08:45:00      4.064     0.000     3.079    93.079
   02/06/2018 09:00:00      4.088     0.000     3.116    93.116
   02/06/2018 09:15:00      4.101     0.000     3.135    93.135
   02/06/2018 09:30:00      4.100     0.000     3.134    93.134
   02/06/2018 09:45:00      4.089     0.000     3.118    93.118
   02/06/2018 10:00:00      4.072     0.000     3.092    93.092
   02/06/2018 10:15:00      4.049     0.000     3.057    93.057
   02/06/2018 10:30:00      4.023     0.000     3.018    93.018
   02/06/2018 10:45:00      3.993     0.000     2.974    92.974
   02/06/2018 11:00:00      3.961     0.000     2.927    92.927
   02/06/2018 11:15:00      3.928     0.000     2.877    92.877
   02/06/2018 11:30:00      3.893     0.000     2.826    92.826
   02/06/2018 11:45:00      3.856     0.000     2.773    92.773
   02/06/2018 12:00:00      3.819     0.000     2.720    92.720
   02/06/2018 12:15:00      3.780     0.000     2.665    92.665
   02/06/2018 12:30:00      3.741     0.000     2.610    92.610
   02/06/2018 12:45:00      3.701     0.000     2.555    92.555
   02/06/2018 13:00:00      3.661     0.000     2.500    92.500
   02/06/2018 13:15:00      3.620     0.000     2.444    92.444
   02/06/2018 13:30:00      3.579     0.000     2.389    92.389
   02/06/2018 13:45:00      3.538     0.000     2.334    92.334
   02/06/2018 14:00:00      3.496     0.000     2.279    92.279
   02/06/2018 14:15:00      3.460     0.000     2.222    92.222
   02/06/2018 14:30:00      3.436     0.000     2.160    92.160
   02/06/2018 14:45:00      3.412     0.000     2.098    92.098
   02/06/2018 15:00:00      3.387     0.000     2.036    92.036
   02/06/2018 15:15:00      3.362     0.000     1.974    91.974
   02/06/2018 15:30:00      3.338     0.000     1.913    91.913
   02/06/2018 15:45:00      3.313     0.000     1.852    91.852
  
  
  <<< Node J3 >>>
  ----------------------------------------------------------------
                           Inflow  Flooding     Depth      Head
  Date        Time            CFS       CFS      feet      feet
  ----------------------------------------------------------------
   02/06/2018 00:15:00      3.017     0.000     1.457    89.457
   02/06/2018 00:30:00      2.988     0.000     1.425    89.425
   02/06/2018 00:45:00      3.032     0.000     1.474    89.474
   02/06/2018 01:00:00      3.053     0.000     1.497    89.497
   02/06/2018 01:15:00      3.057     0.000     1.502    89.502
   02/06/2018 01:30:00      3.055     0.000     1.499    89.499
   02/06/2018 01:45:00      3.049     0.000     1.492    89.492
   02/06/2018 02:00:00      3.039     0.000     1.481    89.481
   02/06/2018 02:15:00      3.026     0.000     1.467    89.467
   02/06/2018 02:30:00      3.011     0.000     1.450    89.450
   02/06/2018 02:45:00      2.995     0.000     1.432    89.432
   02/06/2018 03:00:00      2.978     0.000     1.413    89.413
   02/06/2018 03:15:00      2.959     0.000     1.392    89.392
   02/06/2018 03:30:00      3.009     0.000     1.451    89.451
   02/06/2018 03:45:00      3.016     0.000     1.455    89.455
   02/06/2018 04:00:00      2.999     0.000     1.437    89.437
   02/06/2018 04:15:00      2.973     0.000     1.408    89.408
   02/06/2018 04:30:00      2.961     0.000     1.395    89.395
   02/06/2018 04:45:00      2.969     0.000     1.404    89.404
   02/06/2018 05:00:00      2.993     0.000     1.430    89.430
   02/06/2018 05:15:00      3.019     0.000     1.459    89.459
   02/06/2018 05:30:00      2.986     0.000     1.423    89.423
   02/06/2018 05:45:00      3.067     0.000     1.514    89.514
   02/06/2018 06:00:00      3.160     0.000     1.620    89.620
   02/06/2018 06:15:00      3.254     0.000     1.733    89.733
   02/06/2018 06:30:00      3.344     0.000     1.842    89.842
   02/06/2018 06:45:00      3.429     0.000     1.948    89.948
   02/06/2018 07:00:00      3.540     0.070     2.000    90.000
   02/06/2018 07:15:00      3.665     0.195     2.000    90.000
   02/06/2018 07:30:00      3.766     0.296     2.000    90.000
   02/06/2018 07:45:00      3.852     0.381     2.000    90.000
   02/06/2018 08:00:00      3.927     0.456     2.000    90.000
   02/06/2018 08:15:00      3.988     0.517     2.000    90.000
   02/06/2018 08:30:00      4.031     0.560     2.000    90.000
   02/06/2018 08:45:00      4.063     0.592     2.000    90.000
   02/06/2018 09:00:00      4.087     0.616     2.000    90.000
   02/06/2018 09:15:00      4.101     0.630     2.000    90.000
   02/06/2018 09:30:00      4.100     0.629     2.000    90.000
   02/06/2018 09:45:00      4.090     0.619     2.000    90.000
   02/06/2018 10:00:00      4.072     0.601     2.000    90.000
   02/06/2018 10:15:00      4.050     0.579     2.000    90.000
   02/06/2018 10:30:00      4.023     0.552     2.000    90.000
   02/06/2018 10:45:00      3.994     0.523     2.000    90.000
   02/06/2018 11:00:00      3.962     0.491     2.000    90.000
   02/06/2018 11:15:00      3.929     0.458     2.000    90.000
   02/06/2018 11:30:00      3.894     0.423     2.000    90.000
   02/06/2018 11:45:00      3.857     0.386     2.000    90.000
   02/06/2018 12:00:00      3.820     0.349     2.000    90.000
   02/06/2018 12:15:00      3.781     0.310     2.000    90.000
   02/06/2018 12:30:00      3.742     0.271     2.000    90.000
   02/06/2018 12:45:00      3.703     0.232     2.000    90.000
   02/06/2018 13:00:00      3.662     0.191     2.000    90.000
   02/06/2018 13:15:00      3.622     0.150     2.000    90.000
   02/06/2018 13:30:00      3.580     0.109     2.000    90.000
   02/06/2018 13:45:00      3.539     0.068     2.000    90.000
   02/06/2018 14:00:00      3.497     0.026     2.000    90.000
   02/06/2018 14:15:00      3.462     0.000     1.988    89.988
   02/06/2018 14:30:00      3.437     0.000     1.957    89.957
   02/06/2018 14:45:00      3.413     0.000     1.926    89.926
   02/06/2018 15:00:00      3.388     0.000     1.896    89.896
   02/06/2018 15:15:00      3.364     0.000     1.865    89.865
   02/06/2018 15:30:00      3.339     0.000     1.835    89.835
   02/06/2018 15:45:00      3.314     0.000     1.804    89.804
  
  
  <<< Node Out1 >>>
  ----------------------------------------------------------------
                           Inflow  Flooding     Depth      Head
  Date        Time            CFS       CFS      feet      feet
  ----------------------------------------------------------------
   02/06/2018 00:15:00      3.016     0.000     0.744    87.744
   02/06/2018 00:30:00      2.987     0.000     0.740    87.740
   02/06/2018 00:45:00      3.032     0.000     0.746    87.746
   02/06/2018 01:00:00      3.053     0.000     0.748    87.748
   02/06/2018 01:15:00      3.057     0.000     0.749    87.749
   02/06/2018 01:30:00      3.055     0.000     0.749    87.749
   02/06/2018 01:45:00      3.049     0.000     0.748    87.748
   02/06/2018 02:00:00      3.039     0.000     0.747    87.747
   02/06/2018 02:15:00      3.026     0.000     0.745    87.745
   02/06/2018 02:30:00      3.011     0.000     0.743    87.743
   02/06/2018 02:45:00      2.995     0.000     0.741    87.741
   02/06/2018 03:00:00      2.978     0.000     0.739    87.739
   02/06/2018 03:15:00      2.959     0.000     0.737    87.737
   02/06/2018 03:30:00      3.009     0.000     0.743    87.743
   02/06/2018 03:45:00      3.016     0.000     0.744    87.744
   02/06/2018 04:00:00      3.000     0.000     0.742    87.742
   02/06/2018 04:15:00      2.974     0.000     0.739    87.739
   02/06/2018 04:30:00      2.961     0.000     0.737    87.737
   02/06/2018 04:45:00      2.969     0.000     0.738    87.738
   02/06/2018 05:00:00      2.992     0.000     0.741    87.741
   02/06/2018 05:15:00      3.018     0.000     0.744    87.744
   02/06/2018 05:30:00      2.986     0.000     0.740    87.740
   02/06/2018 05:45:00      3.066     0.000     0.750    87.750
   02/06/2018 06:00:00      3.159     0.000     0.761    87.761
   02/06/2018 06:15:00      3.254     0.000     0.772    87.772
   02/06/2018 06:30:00      3.343     0.000     0.782    87.782
   02/06/2018 06:45:00      3.429     0.000     0.791    87.791
   02/06/2018 07:00:00      3.471     0.000     0.796    87.796
   02/06/2018 07:15:00      3.471     0.000     0.796    87.796
   02/06/2018 07:30:00      3.471     0.000     0.796    87.796
   02/06/2018 07:45:00      3.471     0.000     0.796    87.796
   02/06/2018 08:00:00      3.471     0.000     0.796    87.796
   02/06/2018 08:15:00      3.471     0.000     0.796    87.796
   02/06/2018 08:30:00      3.471     0.000     0.796    87.796
   02/06/2018 08:45:00      3.471     0.000     0.796    87.796
   02/06/2018 09:00:00      3.471     0.000     0.796    87.796
   02/06/2018 09:15:00      3.471     0.000     0.796    87.796
   02/06/2018 09:30:00      3.471     0.000     0.796    87.796
   02/06/2018 09:45:00      3.471     0.000     0.796    87.796
   02/06/2018 10:00:00      3.471     0.000     0.796    87.796
   02/06/2018 10:15:00      3.471     0.000     0.796    87.796
   02/06/2018 10:30:00      3.471     0.000     0.796    87.796
   02/06/2018 10:45:00      3.471     0.000     0.796    87.796
   02/06/2018 11:00:00      3.471     0.000     0.796    87.796
   02/06/2018 11:15:00      3.471     0.000     0.796    87.796
   02/06/2018 11:30:00      3.471     0.000     0.796    87.796
   02/06/2018 11:45:00      3.471     0.000     0.796    87.796
   02/06/2018 12:00:00      3.471     0.000     0.796    87.796
   02/06/2018 12:15:00      3.471     0.000     0.796    87.796
   02/06/2018 12:30:00      3.471     0.000     0.796    87.796
   02/06/2018 12:45:00      3.471     0.000     0.796    87.796
   02/06/2018 13:00:00      3.471     0.000     0.796    87.796
   02/06/2018 13:15:00      3.471     0.000     0.796    87.796
   02/06/2018 13:30:00      3.471     0.000     0.796    87.796
   02/06/2018 13:45:00      3.471     0.000     0.796    87.796
   02/06/2018 14:00:00      3.471     0.000     0.796    87.796
   02/06/2018 14:15:00      3.462     0.000     0.795    87.795
   02/06/2018 14:30:00      3.437     0.000     0.792    87.792
   02/06/2018 14:45:00      3.413     0.000     0.790    87.790
   02/06/2018 15:00:00      3.388     0.000     0.787    87.787
   02/06/2018 15:15:00      3.364     0.000     0.784    87.784
   02/06/2018 15:30:00      3.339     0.000     0.781    87.781
   02/06/2018 15:45:00      3.314     0.000     0.779    87.779
  
  
  <<< Node St1 >>>
  ----------------------------------------------------------------
                           Inflow  Flooding     Depth      Head
  Date        Time            CFS       CFS      feet      feet
  ----------------------------------------------------------------
   02/06/2018 00:15:00     11.940     0.000     1.452    91.452
   02/06/2018 00:30:00      9.333     0.000     1.624    91.624
   02/06/2018 00:45:00      6.731     0.000     1.737    91.737
   02/06/2018 01:00:00      4.142     0.000     1.790    91.790
   02/06/2018 01:15:00      3.138     0.000     1.802    91.802
   02/06/2018 01:30:00      2.515     0.000     1.796    91.796
   02/06/2018 01:45:00      2.052     0.000     1.779    91.779
   02/06/2018 02:00:00      1.701     0.000     1.752    91.752
   02/06/2018 02:15:00      1.428     0.000     1.719    91.719
   02/06/2018 02:30:00      1.213     0.000     1.681    91.681
   02/06/2018 02:45:00      1.040     0.000     1.638    91.638
   02/06/2018 03:00:00      0.900     0.000     1.593    91.593
   02/06/2018 03:15:00      0.785     0.000     1.545    91.545
   02/06/2018 03:30:00      0.690     0.000     1.495    91.495
   02/06/2018 03:45:00      0.610     0.000     1.442    91.442
   02/06/2018 04:00:00      0.543     0.000     1.388    91.388
   02/06/2018 04:15:00      1.538     0.000     1.342    91.342
   02/06/2018 04:30:00      2.884     0.000     1.325    91.325
   02/06/2018 04:45:00      4.177     0.000     1.338    91.338
   02/06/2018 05:00:00      5.296     0.000     1.378    91.378
   02/06/2018 05:15:00      8.501     0.000     1.463    91.463
   02/06/2018 05:30:00     11.326     0.000     1.620    91.620
   02/06/2018 05:45:00     13.420     0.000     1.832    91.832
   02/06/2018 06:00:00     14.880     0.000     2.081    92.081
   02/06/2018 06:15:00     14.699     0.000     2.343    92.343
   02/06/2018 06:30:00     14.495     0.000     2.597    92.597
   02/06/2018 06:45:00     14.364     0.000     2.845    92.845
   02/06/2018 07:00:00     14.278     0.000     3.089    93.089
   02/06/2018 07:15:00     12.549     0.000     3.310    93.310
   02/06/2018 07:30:00     11.328     0.000     3.494    93.494
   02/06/2018 07:45:00     10.533     0.000     3.653    93.653
   02/06/2018 08:00:00     10.000     0.000     3.796    93.796
   02/06/2018 08:15:00      8.419     0.000     3.914    93.914
   02/06/2018 08:30:00      7.279     0.000     4.000    94.000
   02/06/2018 08:45:00      6.500     0.000     4.063    94.063
   02/06/2018 09:00:00      5.951     0.000     4.111    94.111
   02/06/2018 09:15:00      4.568     0.000     4.137    94.137
   02/06/2018 09:30:00      3.538     0.000     4.136    94.136
   02/06/2018 09:45:00      2.807     0.000     4.114    94.114
   02/06/2018 10:00:00      2.270     0.000     4.079    94.079
   02/06/2018 10:15:00      1.867     0.000     4.034    94.034
   02/06/2018 10:30:00      1.558     0.000     3.982    93.982
   02/06/2018 10:45:00      1.315     0.000     3.924    93.924
   02/06/2018 11:00:00      1.123     0.000     3.862    93.862
   02/06/2018 11:15:00      0.968     0.000     3.797    93.797
   02/06/2018 11:30:00      0.841     0.000     3.729    93.729
   02/06/2018 11:45:00      0.736     0.000     3.659    93.659
   02/06/2018 12:00:00      0.649     0.000     3.589    93.589
   02/06/2018 12:15:00      0.575     0.000     3.517    93.517
   02/06/2018 12:30:00      0.513     0.000     3.444    93.444
   02/06/2018 12:45:00      0.459     0.000     3.372    93.372
   02/06/2018 13:00:00      0.414     0.000     3.299    93.299
   02/06/2018 13:15:00      0.374     0.000     3.226    93.226
   02/06/2018 13:30:00      0.339     0.000     3.153    93.153
   02/06/2018 13:45:00      0.309     0.000     3.080    93.080
   02/06/2018 14:00:00      0.283     0.000     3.007    93.007
   02/06/2018 14:15:00      0.259     0.000     2.935    92.935
   02/06/2018 14:30:00      0.238     0.000     2.863    92.863
   02/06/2018 14:45:00      0.220     0.000     2.791    92.791
   02/06/2018 15:00:00      0.203     0.000     2.720    92.720
   02/06/2018 15:15:00      0.188     0.000     2.648    92.648
   02/06/2018 15:30:00      0.175     0.000     2.577    92.577
   02/06/2018 15:45:00      0.163     0.000     2.506    92.506
  
  
  ************
  Link Results
  ************
  
  <<< Link C1 >>>
  ----------------------------------------------------------------
                             Flow  Velocity     Depth  Capacity/
  Date        Time            CFS    ft/sec      feet   Setting 
  ----------------------------------------------------------------
   02/06/2018 00:15:00     11.940     5.560     1.293     0.684
   02/06/2018 00:30:00      9.333     5.168     1.118     0.575
   02/06/2018 00:45:00      6.731     4.701     0.931     0.456
   02/06/2018 01:00:00      4.142     4.094     0.716     0.322
   02/06/2018 01:15:00      3.138     3.769     0.622     0.265
   02/06/2018 01:30:00      2.515     3.537     0.555     0.226
   02/06/2018 01:45:00      2.052     3.339     0.500     0.196
   02/06/2018 02:00:00      1.701     3.168     0.455     0.171
   02/06/2018 02:15:00      1.428     3.012     0.417     0.151
   02/06/2018 02:30:00      1.213     2.878     0.384     0.134
   02/06/2018 02:45:00      1.040     2.759     0.355     0.120
   02/06/2018 03:00:00      0.900     2.640     0.331     0.109
   02/06/2018 03:15:00      0.785     2.545     0.309     0.098
   02/06/2018 03:30:00      0.690     2.459     0.289     0.089
   02/06/2018 03:45:00      0.610     2.373     0.272     0.082
   02/06/2018 04:00:00      0.543     2.288     0.258     0.075
   02/06/2018 04:15:00      1.538     3.053     0.435     0.160
   02/06/2018 04:30:00      2.884     3.655     0.598     0.251
   02/06/2018 04:45:00      4.177     4.064     0.725     0.327
   02/06/2018 05:00:00      5.296     4.355     0.821     0.387
   02/06/2018 05:15:00      8.501     4.986     1.067     0.543
   02/06/2018 05:30:00     11.326     5.440     1.259     0.663
   02/06/2018 05:45:00     13.420     5.727     1.397     0.746
   02/06/2018 06:00:00     14.880     5.902     1.497     0.803
   02/06/2018 06:15:00     14.699     5.889     1.482     0.794
   02/06/2018 06:30:00     14.495     5.866     1.468     0.787
   02/06/2018 06:45:00     14.364     5.850     1.459     0.782
   02/06/2018 07:00:00     14.278     5.840     1.453     0.778
   02/06/2018 07:15:00     12.549     5.634     1.335     0.709
   02/06/2018 07:30:00     11.328     5.461     1.255     0.660
   02/06/2018 07:45:00     10.533     5.343     1.202     0.627
   02/06/2018 08:00:00     10.000     5.260     1.166     0.605
   02/06/2018 08:15:00      8.419     5.005     1.056     0.535
   02/06/2018 08:30:00      7.279     4.793     0.974     0.483
   02/06/2018 08:45:00      6.500     4.638     0.915     0.446
   02/06/2018 09:00:00      5.951     4.519     0.873     0.419
   02/06/2018 09:15:00      4.568     4.198     0.756     0.346
   02/06/2018 09:30:00      3.538     3.900     0.662     0.289
   02/06/2018 09:45:00      2.807     3.651     0.587     0.245
   02/06/2018 10:00:00      2.270     3.438     0.526     0.210
   02/06/2018 10:15:00      1.867     3.250     0.477     0.183
   02/06/2018 10:30:00      1.558     3.091     0.435     0.160
   02/06/2018 10:45:00      1.315     2.941     0.400     0.142
   02/06/2018 11:00:00      1.123     2.819     0.369     0.127
   02/06/2018 11:15:00      0.968     2.699     0.343     0.114
   02/06/2018 11:30:00      0.841     2.591     0.320     0.103
   02/06/2018 11:45:00      0.736     2.502     0.299     0.094
   02/06/2018 12:00:00      0.649     2.418     0.281     0.085
   02/06/2018 12:15:00      0.575     2.330     0.265     0.079
   02/06/2018 12:30:00      0.513     2.248     0.251     0.073
   02/06/2018 12:45:00      0.459     2.183     0.237     0.067
   02/06/2018 13:00:00      0.414     2.124     0.225     0.062
   02/06/2018 13:15:00      0.374     2.069     0.214     0.058
   02/06/2018 13:30:00      0.339     2.016     0.204     0.054
   02/06/2018 13:45:00      0.309     1.961     0.195     0.050
   02/06/2018 14:00:00      0.283     1.906     0.187     0.047
   02/06/2018 14:15:00      0.259     1.854     0.179     0.044
   02/06/2018 14:30:00      0.238     1.805     0.173     0.042
   02/06/2018 14:45:00      0.220     1.758     0.167     0.040
   02/06/2018 15:00:00      0.203     1.733     0.160     0.037
   02/06/2018 15:15:00      0.188     1.701     0.153     0.035
   02/06/2018 15:30:00      0.175     1.670     0.147     0.033
   02/06/2018 15:45:00      0.163     1.642     0.142     0.032
  
  
  <<< Link C2 >>>
  ----------------------------------------------------------------
                             Flow  Velocity     Depth  Capacity/
  Date        Time            CFS    ft/sec      feet   Setting 
  ----------------------------------------------------------------
   02/06/2018 00:15:00      3.017     3.915     0.950     0.981
   02/06/2018 00:30:00      2.988     3.804     1.000     1.000
   02/06/2018 00:45:00      3.032     3.860     1.000     1.000
   02/06/2018 01:00:00      3.053     3.887     1.000     1.000
   02/06/2018 01:15:00      3.057     3.893     1.000     1.000
   02/06/2018 01:30:00      3.055     3.890     1.000     1.000
   02/06/2018 01:45:00      3.049     3.882     1.000     1.000
   02/06/2018 02:00:00      3.039     3.869     1.000     1.000
   02/06/2018 02:15:00      3.026     3.853     1.000     1.000
   02/06/2018 02:30:00      3.011     3.834     1.000     1.000
   02/06/2018 02:45:00      2.995     3.813     1.000     1.000
   02/06/2018 03:00:00      2.978     3.791     1.000     1.000
   02/06/2018 03:15:00      2.959     3.767     1.000     1.000
   02/06/2018 03:30:00      3.009     3.851     0.979     0.995
   02/06/2018 03:45:00      3.016     3.911     0.951     0.982
   02/06/2018 04:00:00      2.999     3.948     0.927     0.967
   02/06/2018 04:15:00      2.973     3.969     0.908     0.954
   02/06/2018 04:30:00      2.961     3.974     0.901     0.949
   02/06/2018 04:45:00      2.969     3.971     0.906     0.952
   02/06/2018 05:00:00      2.993     3.956     0.921     0.963
   02/06/2018 05:15:00      3.019     3.901     0.958     0.985
   02/06/2018 05:30:00      2.986     3.802     1.000     1.000
   02/06/2018 05:45:00      3.067     3.905     1.000     1.000
   02/06/2018 06:00:00      3.160     4.023     1.000     1.000
   02/06/2018 06:15:00      3.254     4.143     1.000     1.000
   02/06/2018 06:30:00      3.344     4.257     1.000     1.000
   02/06/2018 06:45:00      3.429     4.366     1.000     1.000
   02/06/2018 07:00:00      3.540     4.508     1.000     1.000
   02/06/2018 07:15:00      3.665     4.667     1.000     1.000
   02/06/2018 07:30:00      3.766     4.795     1.000     1.000
   02/06/2018 07:45:00      3.852     4.904     1.000     1.000
   02/06/2018 08:00:00      3.927     4.999     1.000     1.000
   02/06/2018 08:15:00      3.988     5.077     1.000     1.000
   02/06/2018 08:30:00      4.031     5.133     1.000     1.000
   02/06/2018 08:45:00      4.063     5.173     1.000     1.000
   02/06/2018 09:00:00      4.087     5.204     1.000     1.000
   02/06/2018 09:15:00      4.101     5.221     1.000     1.000
   02/06/2018 09:30:00      4.100     5.220     1.000     1.000
   02/06/2018 09:45:00      4.090     5.207     1.000     1.000
   02/06/2018 10:00:00      4.072     5.185     1.000     1.000
   02/06/2018 10:15:00      4.050     5.156     1.000     1.000
   02/06/2018 10:30:00      4.023     5.123     1.000     1.000
   02/06/2018 10:45:00      3.994     5.086     1.000     1.000
   02/06/2018 11:00:00      3.962     5.045     1.000     1.000
   02/06/2018 11:15:00      3.929     5.002     1.000     1.000
   02/06/2018 11:30:00      3.894     4.958     1.000     1.000
   02/06/2018 11:45:00      3.857     4.911     1.000     1.000
   02/06/2018 12:00:00      3.820     4.864     1.000     1.000
   02/06/2018 12:15:00      3.781     4.815     1.000     1.000
   02/06/2018 12:30:00      3.742     4.765     1.000     1.000
   02/06/2018 12:45:00      3.703     4.714     1.000     1.000
   02/06/2018 13:00:00      3.662     4.663     1.000     1.000
   02/06/2018 13:15:00      3.622     4.611     1.000     1.000
   02/06/2018 13:30:00      3.580     4.559     1.000     1.000
   02/06/2018 13:45:00      3.539     4.506     1.000     1.000
   02/06/2018 14:00:00      3.497     4.453     1.000     1.000
   02/06/2018 14:15:00      3.462     4.408     1.000     1.000
   02/06/2018 14:30:00      3.437     4.377     1.000     1.000
   02/06/2018 14:45:00      3.413     4.345     1.000     1.000
   02/06/2018 15:00:00      3.388     4.314     1.000     1.000
   02/06/2018 15:15:00      3.364     4.283     1.000     1.000
   02/06/2018 15:30:00      3.339     4.251     1.000     1.000
   02/06/2018 15:45:00      3.314     4.220     1.000     1.000
  
  
  <<< Link C3 >>>
  ----------------------------------------------------------------
                             Flow  Velocity     Depth  Capacity/
  Date        Time            CFS    ft/sec      feet   Setting 
  ----------------------------------------------------------------
   02/06/2018 00:15:00      3.016     4.151     0.872     0.925
   02/06/2018 00:30:00      2.987     4.118     0.870     0.924
   02/06/2018 00:45:00      3.032     4.169     0.873     0.926
   02/06/2018 01:00:00      3.053     4.193     0.874     0.927
   02/06/2018 01:15:00      3.057     4.198     0.875     0.927
   02/06/2018 01:30:00      3.055     4.195     0.874     0.927
   02/06/2018 01:45:00      3.049     4.188     0.874     0.927
   02/06/2018 02:00:00      3.039     4.177     0.873     0.926
   02/06/2018 02:15:00      3.026     4.162     0.873     0.926
   02/06/2018 02:30:00      3.011     4.145     0.872     0.925
   02/06/2018 02:45:00      2.995     4.127     0.871     0.924
   02/06/2018 03:00:00      2.978     4.107     0.870     0.923
   02/06/2018 03:15:00      2.959     4.085     0.868     0.922
   02/06/2018 03:30:00      3.009     4.143     0.872     0.925
   02/06/2018 03:45:00      3.016     4.151     0.872     0.925
   02/06/2018 04:00:00      3.000     4.132     0.871     0.924
   02/06/2018 04:15:00      2.974     4.102     0.869     0.923
   02/06/2018 04:30:00      2.961     4.088     0.869     0.922
   02/06/2018 04:45:00      2.969     4.097     0.869     0.923
   02/06/2018 05:00:00      2.992     4.124     0.871     0.924
   02/06/2018 05:15:00      3.018     4.153     0.872     0.925
   02/06/2018 05:30:00      2.986     4.116     0.870     0.924
   02/06/2018 05:45:00      3.066     4.208     0.875     0.928
   02/06/2018 06:00:00      3.159     4.314     0.881     0.933
   02/06/2018 06:15:00      3.254     4.423     0.886     0.937
   02/06/2018 06:30:00      3.343     4.525     0.891     0.941
   02/06/2018 06:45:00      3.429     4.622     0.896     0.944
   02/06/2018 07:00:00      3.471     4.670     0.898     0.946
   02/06/2018 07:15:00      3.471     4.670     0.898     0.946
   02/06/2018 07:30:00      3.471     4.670     0.898     0.946
   02/06/2018 07:45:00      3.471     4.670     0.898     0.946
   02/06/2018 08:00:00      3.471     4.670     0.898     0.946
   02/06/2018 08:15:00      3.471     4.670     0.898     0.946
   02/06/2018 08:30:00      3.471     4.670     0.898     0.946
   02/06/2018 08:45:00      3.471     4.670     0.898     0.946
   02/06/2018 09:00:00      3.471     4.670     0.898     0.946
   02/06/2018 09:15:00      3.471     4.670     0.898     0.946
   02/06/2018 09:30:00      3.471     4.670     0.898     0.946
   02/06/2018 09:45:00      3.471     4.670     0.898     0.946
   02/06/2018 10:00:00      3.471     4.670     0.898     0.946
   02/06/2018 10:15:00      3.471     4.670     0.898     0.946
   02/06/2018 10:30:00      3.471     4.670     0.898     0.946
   02/06/2018 10:45:00      3.471     4.670     0.898     0.946
   02/06/2018 11:00:00      3.471     4.670     0.898     0.946
   02/06/2018 11:15:00      3.471     4.670     0.898     0.946
   02/06/2018 11:30:00      3.471     4.670     0.898     0.946
   02/06/2018 11:45:00      3.471     4.670     0.898     0.946
   02/06/2018 12:00:00      3.471     4.670     0.898     0.946
   02/06/2018 12:15:00      3.471     4.670     0.898     0.946
   02/06/2018 12:30:00      3.471     4.670     0.898     0.946
   02/06/2018 12:45:00      3.471     4.670     0.898     0.946
   02/06/2018 13:00:00      3.471     4.670     0.898     0.946
   02/06/2018 13:15:00      3.471     4.670     0.898     0.946
   02/06/2018 13:30:00      3.471     4.670     0.898     0.946
   02/06/2018 13:45:00      3.471     4.670     0.898     0.946
   02/06/2018 14:00:00      3.471     4.670     0.898     0.946
   02/06/2018 14:15:00      3.462     4.660     0.897     0.946
   02/06/2018 14:30:00      3.437     4.632     0.896     0.945
   02/06/2018 14:45:00      3.413     4.605     0.895     0.944
   02/06/2018 15:00:00      3.388     4.577     0.893     0.943
   02/06/2018 15:15:00      3.364     4.549     0.892     0.942
   02/06/2018 15:30:00      3.339     4.520     0.891     0.941
   02/06/2018 15:45:00      3.314     4.492     0.889     0.939
  
  
  <<< Link R1 >>>
  ----------------------------------------------------------------
                             Flow  Velocity     Depth  Capacity/
  Date        Time            CFS    ft/sec      feet   Setting 
  ----------------------------------------------------------------
   02/06/2018 00:15:00      3.042     0.000     1.000     1.000
   02/06/2018 00:30:00      2.992     0.000     1.000     1.000
   02/06/2018 00:45:00      3.034     0.000     1.000     1.000
   02/06/2018 01:00:00      3.053     0.000     1.000     1.000
   02/06/2018 01:15:00      3.057     0.000     1.000     1.000
   02/06/2018 01:30:00      3.055     0.000     1.000     1.000
   02/06/2018 01:45:00      3.048     0.000     1.000     1.000
   02/06/2018 02:00:00      3.038     0.000     1.000     1.000
   02/06/2018 02:15:00      3.025     0.000     1.000     1.000
   02/06/2018 02:30:00      3.010     0.000     1.000     1.000
   02/06/2018 02:45:00      2.994     0.000     1.000     1.000
   02/06/2018 03:00:00      2.976     0.000     1.000     1.000
   02/06/2018 03:15:00      2.957     0.000     1.000     1.000
   02/06/2018 03:30:00      2.999     0.000     1.000     1.000
   02/06/2018 03:45:00      3.009     0.000     1.000     1.000
   02/06/2018 04:00:00      2.992     0.000     1.000     1.000
   02/06/2018 04:15:00      2.969     0.000     1.000     1.000
   02/06/2018 04:30:00      2.961     0.000     1.000     1.000
   02/06/2018 04:45:00      2.972     0.000     1.000     1.000
   02/06/2018 05:00:00      2.999     0.000     1.000     1.000
   02/06/2018 05:15:00      3.033     0.000     1.000     1.000
   02/06/2018 05:30:00      2.991     0.000     1.000     1.000
   02/06/2018 05:45:00      3.072     0.000     1.000     1.000
   02/06/2018 06:00:00      3.165     0.000     1.000     1.000
   02/06/2018 06:15:00      3.259     0.000     1.000     1.000
   02/06/2018 06:30:00      3.349     0.000     1.000     1.000
   02/06/2018 06:45:00      3.434     0.000     1.000     1.000
   02/06/2018 07:00:00      3.544     0.000     1.000     1.000
   02/06/2018 07:15:00      3.669     0.000     1.000     1.000
   02/06/2018 07:30:00      3.769     0.000     1.000     1.000
   02/06/2018 07:45:00      3.854     0.000     1.000     1.000
   02/06/2018 08:00:00      3.929     0.000     1.000     1.000
   02/06/2018 08:15:00      3.989     0.000     1.000     1.000
   02/06/2018 08:30:00      4.032     0.000     1.000     1.000
   02/06/2018 08:45:00      4.064     0.000     1.000     1.000
   02/06/2018 09:00:00      4.088     0.000     1.000     1.000
   02/06/2018 09:15:00      4.101     0.000     1.000     1.000
   02/06/2018 09:30:00      4.100     0.000     1.000     1.000
   02/06/2018 09:45:00      4.089     0.000     1.000     1.000
   02/06/2018 10:00:00      4.072     0.000     1.000     1.000
   02/06/2018 10:15:00      4.049     0.000     1.000     1.000
   02/06/2018 10:30:00      4.023     0.000     1.000     1.000
   02/06/2018 10:45:00      3.993     0.000     1.000     1.000
   02/06/2018 11:00:00      3.961     0.000     1.000     1.000
   02/06/2018 11:15:00      3.928     0.000     1.000     1.000
   02/06/2018 11:30:00      3.893     0.000     1.000     1.000
   02/06/2018 11:45:00      3.856     0.000     1.000     1.000
   02/06/2018 12:00:00      3.819     0.000     1.000     1.000
   02/06/2018 12:15:00      3.780     0.000     1.000     1.000
   02/06/2018 12:30:00      3.741     0.000     1.000     1.000
   02/06/2018 12:45:00      3.701     0.000     1.000     1.000
   02/06/2018 13:00:00      3.661     0.000     1.000     1.000
   02/06/2018 13:15:00      3.620     0.000     1.000     1.000
   02/06/2018 13:30:00      3.579     0.000     1.000     1.000
   02/06/2018 13:45:00      3.538     0.000     1.000     1.000
   02/06/2018 14:00:00      3.496     0.000     1.000     1.000
   02/06/2018 14:15:00      3.460     0.000     1.000     1.000
   02/06/2018 14:30:00      3.436     0.000     1.000     1.000
   02/06/2018 14:45:00      3.412     0.000     1.000     1.000
   02/06/2018 15:00:00      3.387     0.000     1.000     1.000
   02/06/2018 15:15:00      3.362     0.000     1.000     1.000
   02/06/2018 15:30:00      3.338     0.000     1.000     1.000
   02/06/2018 15:45:00      3.313     0.000     1.000     1.000
  

  Analysis begun on:  Mon Apr 23 13:42:37 2018
  Analysis ended on:  Mon Apr 23 13:42:37 2018
  Total elapsed time: < 1 sec