
  EPA STORM WATER MANAGEMENT MODEL - VERSION 5.1 (Build 5.2.0.dev3)
  --------------------------------------------------------------

  
  *********************************************************
  NOTE: The summary statistics displayed in this report are
  based on results found at every computational time step,  
  not just on results from each reporting time step.
  *********************************************************
  
  ****************
  Analysis Options
  ****************
  Flow Units ............... CFS
  Process Models:
    Rainfall/Runoff ........ YES
    RDII ................... NO
    Snowmelt ............... NO
    Groundwater ............ NO
    Flow Routing ........... YES
    Ponding Allowed ........ NO
    Water Quality .......... NO
  Infiltration Method ...... MODIFIED_GREEN_AMPT
  Flow Routing Method ...... DYNWAVE
  Starting Date ............ 02/06/2018 00:00:00
  Ending Date .............. 02/06/2018 06:00:00
  Antecedent Dry Days ...... 0.0
  Report Time Step ......... 00:15:00
  Wet Time Step ............ 00:05:00
  Dry Time Step ............ 01:00:00
  Routing Time Step ........ 10.00 sec
  Variable Time Step ....... YES
  Maximum Trials ........... 8
  Number of Threads ........ 1
  Head Tolerance ........... 0.005000 ft
  
  
  **************************        Volume         Depth
  Runoff Quantity Continuity     acre-feet        inches
  **************************     ---------       -------
  Total Precipitation ......         4.375         0.750
  Evaporation Loss .........         0.000         0.000
  Infiltration Loss ........         2.188         0.375
  Surface Runoff ...........         0.970         0.166
  Final Storage ............         1.266         0.217
  Continuity Error (%) .....        -1.126
  
  
  **************************        Volume        Volume
  Flow Routing Continuity        acre-feet      10^6 gal
  **************************     ---------     ---------
  Dry Weather Inflow .......         0.000         0.000
  Wet Weather Inflow .......         0.918         0.299
  Groundwater Inflow .......         0.000         0.000
  RDII Inflow ..............         0.000         0.000
  External Inflow ..........         0.000         0.000
  External Outflow .........         0.450         0.147
  Flooding Loss ............         0.000         0.000
  Evaporation Loss .........         0.000         0.000
  Exfiltration Loss ........         0.000         0.000
  Initial Stored Volume ....         0.689         0.224
  Final Stored Volume ......         1.158         0.377
  Continuity Error (%) .....        -0.051
  
  
  *************************
  Highest Continuity Errors
  *************************
  Node J3 (1.75%)
  
  
  ***************************
  Time-Step Critical Elements
  ***************************
  None
  
  
  ********************************
  Highest Flow Instability Indexes
  ********************************
  Link R1 (2)
  Link C2 (1)
  
  
  *************************
  Routing Time Step Summary
  *************************
  Minimum Time Step           :     2.33 sec
  Average Time Step           :     9.99 sec
  Maximum Time Step           :    10.00 sec
  Percent in Steady State     :    -0.00
  Average Iterations per Step :     2.02
  Percent Not Converging      :     0.14
  
  
  ***************************
  Subcatchment Runoff Summary
  ***************************
  
  --------------------------------------------------------------------------------------------------------
                            Total      Total      Total      Total      Total       Total     Peak  Runoff
                           Precip      Runon       Evap      Infil     Runoff      Runoff   Runoff   Coeff
  Subcatchment                 in         in         in         in         in    10^6 gal      CFS
  --------------------------------------------------------------------------------------------------------
  S1                         0.75       0.00       0.00       0.38       0.17        0.32    14.35   0.222
  
  
  ******************
  Node Depth Summary
  ******************
  
  ---------------------------------------------------------------------------------
                                 Average  Maximum  Maximum  Time of Max    Reported
                                   Depth    Depth      HGL   Occurrence   Max Depth
  Node                 Type         Feet     Feet     Feet  days hr:min        Feet
  ---------------------------------------------------------------------------------
  J1                   JUNCTION     0.25     1.54    97.54     0  06:00        1.54
  J2                   JUNCTION     0.36     0.73    90.73     0  06:00        0.73
  J3                   JUNCTION     0.44     1.30    89.30     0  06:00        1.30
  Out1                 OUTFALL      0.39     0.73    87.73     0  06:00        0.73
  St1                  STORAGE      0.59     1.22    91.22     0  06:00        1.22
  
  
  *******************
  Node Inflow Summary
  *******************
  
  -------------------------------------------------------------------------------------------------
                                  Maximum  Maximum                  Lateral       Total        Flow
                                  Lateral    Total  Time of Max      Inflow      Inflow     Balance
                                   Inflow   Inflow   Occurrence      Volume      Volume       Error
  Node                 Type           CFS      CFS  days hr:min    10^6 gal    10^6 gal     Percent
  -------------------------------------------------------------------------------------------------
  J1                   JUNCTION     14.35    14.35     0  06:00         0.3       0.299       2.707
  J2                   JUNCTION      0.00     3.49     0  00:00           0        0.15       0.648
  J3                   JUNCTION      0.00     2.86     0  06:00           0       0.149       1.779
  Out1                 OUTFALL       0.00     2.86     0  06:00           0       0.147       0.000
  St1                  STORAGE       0.00    14.23     0  06:00           0       0.516       0.006
  
  
  **********************
  Node Surcharge Summary
  **********************
  
  Surcharging occurs when water rises above the top of the highest conduit.
  ---------------------------------------------------------------------
                                               Max. Height   Min. Depth
                                   Hours       Above Crown    Below Rim
  Node                 Type      Surcharged           Feet         Feet
  ---------------------------------------------------------------------
  J3                   JUNCTION        0.09          0.299        0.701
  
  
  *********************
  Node Flooding Summary
  *********************
  
  No nodes were flooded.
  
  
  **********************
  Storage Volume Summary
  **********************
  
  --------------------------------------------------------------------------------------------------
                         Average     Avg  Evap Exfil       Maximum     Max    Time of Max    Maximum
                          Volume    Pcnt  Pcnt  Pcnt        Volume    Pcnt     Occurrence    Outflow
  Storage Unit          1000 ft3    Full  Loss  Loss      1000 ft3    Full    days hr:min        CFS
  --------------------------------------------------------------------------------------------------
  St1                     23.483      12     0     0        48.854      24       0  06:00       3.49
  
  
  ***********************
  Outfall Loading Summary
  ***********************
  
  -----------------------------------------------------------
                         Flow       Avg       Max       Total
                         Freq      Flow      Flow      Volume
  Outfall Node           Pcnt       CFS       CFS    10^6 gal
  -----------------------------------------------------------
  Out1                  99.86      0.91      2.86       0.147
  -----------------------------------------------------------
  System                99.86      0.91      2.86       0.147
  
  
  ********************
  Link Flow Summary
  ********************
  
  -----------------------------------------------------------------------------
                                 Maximum  Time of Max   Maximum    Max/    Max/
                                  |Flow|   Occurrence   |Veloc|    Full    Full
  Link                 Type          CFS  days hr:min    ft/sec    Flow   Depth
  -----------------------------------------------------------------------------
  C1                   CONDUIT     14.23     0  06:00      5.83    0.97    0.73
  C2                   CONDUIT      2.86     0  06:00      5.41    0.87    0.86
  C3                   CONDUIT      2.86     0  06:00      3.98    1.24    0.86
  R1                   ORIFICE      3.49     0  00:00                          
  
  
  ***************************
  Flow Classification Summary
  ***************************
  
  -------------------------------------------------------------------------------------
                      Adjusted    ---------- Fraction of Time in Flow Class ---------- 
                       /Actual         Up    Down  Sub   Sup   Up    Down  Norm  Inlet 
  Conduit               Length    Dry  Dry   Dry   Crit  Crit  Crit  Crit  Ltd   Ctrl  
  -------------------------------------------------------------------------------------
  C1                      1.00   0.67  0.00  0.00  0.00  0.00  0.00  0.33  0.00  0.00
  C2                      1.00   0.00  0.00  0.00  0.52  0.48  0.00  0.00  0.99  0.00
  C3                      1.00   0.00  0.00  0.00  1.00  0.00  0.00  0.00  0.00  0.00
  
  
  *************************
  Conduit Surcharge Summary
  *************************
  
  ----------------------------------------------------------------------------
                                                           Hours        Hours 
                         --------- Hours Full --------   Above Full   Capacity
  Conduit                Both Ends  Upstream  Dnstream   Normal Flow   Limited
  ----------------------------------------------------------------------------
  C2                          0.01      0.01      0.09      0.01         0.01
  C3                          0.01      0.09      0.01      0.18         0.01
  
  
  ********************
  Subcatchment Results
  ********************
  
  <<< Subcatchment S1 >>>
  ---------------------------------------------------
  Date        Time        Precip.    Losses    Runoff
                            in/hr     in/hr       CFS
  ---------------------------------------------------
   02/06/2018 00:15:00      0.000     0.000    0.0000
   02/06/2018 00:30:00      0.000     0.000    0.0000
   02/06/2018 00:45:00      0.000     0.000    0.0000
   02/06/2018 01:00:00      0.000     0.000    0.0000
   02/06/2018 01:15:00      0.000     0.000    0.0000
   02/06/2018 01:30:00      0.000     0.000    0.0000
   02/06/2018 01:45:00      0.000     0.000    0.0000
   02/06/2018 02:00:00      0.000     0.000    0.0000
   02/06/2018 02:15:00      0.000     0.000    0.0000
   02/06/2018 02:30:00      0.000     0.000    0.0000
   02/06/2018 02:45:00      0.000     0.000    0.0000
   02/06/2018 03:00:00      0.000     0.000    0.0000
   02/06/2018 03:15:00      0.000     0.000    0.0000
   02/06/2018 03:30:00      0.000     0.000    0.0000
   02/06/2018 03:45:00      0.000     0.000    0.0000
   02/06/2018 04:00:00      0.250     0.125    0.0000
   02/06/2018 04:15:00      0.250     0.125    0.1912
   02/06/2018 04:30:00      0.250     0.125    1.0842
   02/06/2018 04:45:00      0.250     0.125    2.3486
   02/06/2018 05:00:00      0.500     0.250    3.6614
   02/06/2018 05:15:00      0.500     0.250    7.1546
   02/06/2018 05:30:00      0.500     0.250   10.2508
   02/06/2018 05:45:00      0.500     0.250   12.6421
   02/06/2018 06:00:00      0.400     0.250   14.3490
  
  
  ************
  Node Results
  ************
  
  <<< Node J1 >>>
  ----------------------------------------------------------------
                           Inflow  Flooding     Depth      Head
  Date        Time            CFS       CFS      feet      feet
  ----------------------------------------------------------------
   02/06/2018 00:15:00      0.000     0.000     0.000    96.000
   02/06/2018 00:30:00      0.000     0.000     0.000    96.000
   02/06/2018 00:45:00      0.000     0.000     0.000    96.000
   02/06/2018 01:00:00      0.000     0.000     0.000    96.000
   02/06/2018 01:15:00      0.000     0.000     0.000    96.000
   02/06/2018 01:30:00      0.000     0.000     0.000    96.000
   02/06/2018 01:45:00      0.000     0.000     0.000    96.000
   02/06/2018 02:00:00      0.000     0.000     0.000    96.000
   02/06/2018 02:15:00      0.000     0.000     0.000    96.000
   02/06/2018 02:30:00      0.000     0.000     0.000    96.000
   02/06/2018 02:45:00      0.000     0.000     0.000    96.000
   02/06/2018 03:00:00      0.000     0.000     0.000    96.000
   02/06/2018 03:15:00      0.000     0.000     0.000    96.000
   02/06/2018 03:30:00      0.000     0.000     0.000    96.000
   02/06/2018 03:45:00      0.000     0.000     0.000    96.000
   02/06/2018 04:00:00      0.000     0.000     0.000    96.000
   02/06/2018 04:15:00      0.188     0.000     0.131    96.131
   02/06/2018 04:30:00      1.073     0.000     0.348    96.348
   02/06/2018 04:45:00      2.335     0.000     0.528    96.528
   02/06/2018 05:00:00      3.648     0.000     0.672    96.672
   02/06/2018 05:15:00      7.118     0.000     0.968    96.968
   02/06/2018 05:30:00     10.221     0.000     1.211    97.211
   02/06/2018 05:45:00     12.620     0.000     1.399    97.399
   02/06/2018 06:00:00     14.345     0.000     1.545    97.545
  
  
  <<< Node J2 >>>
  ----------------------------------------------------------------
                           Inflow  Flooding     Depth      Head
  Date        Time            CFS       CFS      feet      feet
  ----------------------------------------------------------------
   02/06/2018 00:15:00      1.266     0.000     0.432    90.432
   02/06/2018 00:30:00      1.186     0.000     0.417    90.417
   02/06/2018 00:45:00      1.112     0.000     0.402    90.402
   02/06/2018 01:00:00      1.044     0.000     0.389    90.389
   02/06/2018 01:15:00      0.982     0.000     0.376    90.376
   02/06/2018 01:30:00      0.924     0.000     0.364    90.364
   02/06/2018 01:45:00      0.871     0.000     0.353    90.353
   02/06/2018 02:00:00      0.822     0.000     0.342    90.342
   02/06/2018 02:15:00      0.776     0.000     0.332    90.332
   02/06/2018 02:30:00      0.734     0.000     0.322    90.322
   02/06/2018 02:45:00      0.695     0.000     0.313    90.313
   02/06/2018 03:00:00      0.659     0.000     0.305    90.305
   02/06/2018 03:15:00      0.625     0.000     0.296    90.296
   02/06/2018 03:30:00      0.594     0.000     0.289    90.289
   02/06/2018 03:45:00      0.564     0.000     0.281    90.281
   02/06/2018 04:00:00      0.537     0.000     0.274    90.274
   02/06/2018 04:15:00      0.513     0.000     0.268    90.268
   02/06/2018 04:30:00      0.512     0.000     0.267    90.267
   02/06/2018 04:45:00      0.564     0.000     0.280    90.280
   02/06/2018 05:00:00      0.683     0.000     0.308    90.308
   02/06/2018 05:15:00      0.933     0.000     0.362    90.362
   02/06/2018 05:30:00      1.410     0.000     0.454    90.454
   02/06/2018 05:45:00      2.174     0.000     0.593    90.593
   02/06/2018 06:00:00      2.885     0.000     0.725    90.725
  
  
  <<< Node J3 >>>
  ----------------------------------------------------------------
                           Inflow  Flooding     Depth      Head
  Date        Time            CFS       CFS      feet      feet
  ----------------------------------------------------------------
   02/06/2018 00:15:00      1.270     0.000     0.539    88.539
   02/06/2018 00:30:00      1.190     0.000     0.518    88.518
   02/06/2018 00:45:00      1.115     0.000     0.498    88.498
   02/06/2018 01:00:00      1.047     0.000     0.480    88.480
   02/06/2018 01:15:00      0.984     0.000     0.463    88.463
   02/06/2018 01:30:00      0.927     0.000     0.448    88.448
   02/06/2018 01:45:00      0.873     0.000     0.433    88.433
   02/06/2018 02:00:00      0.824     0.000     0.419    88.419
   02/06/2018 02:15:00      0.778     0.000     0.406    88.406
   02/06/2018 02:30:00      0.736     0.000     0.394    88.394
   02/06/2018 02:45:00      0.697     0.000     0.383    88.383
   02/06/2018 03:00:00      0.661     0.000     0.372    88.372
   02/06/2018 03:15:00      0.627     0.000     0.361    88.361
   02/06/2018 03:30:00      0.595     0.000     0.352    88.352
   02/06/2018 03:45:00      0.566     0.000     0.342    88.342
   02/06/2018 04:00:00      0.539     0.000     0.334    88.334
   02/06/2018 04:15:00      0.514     0.000     0.326    88.326
   02/06/2018 04:30:00      0.511     0.000     0.323    88.323
   02/06/2018 04:45:00      0.559     0.000     0.337    88.337
   02/06/2018 05:00:00      0.675     0.000     0.370    88.370
   02/06/2018 05:15:00      0.916     0.000     0.434    88.434
   02/06/2018 05:30:00      1.384     0.000     0.552    88.552
   02/06/2018 05:45:00      2.145     0.000     0.736    88.736
   02/06/2018 06:00:00      2.864     0.000     1.299    89.299
  
  
  <<< Node Out1 >>>
  ----------------------------------------------------------------
                           Inflow  Flooding     Depth      Head
  Date        Time            CFS       CFS      feet      feet
  ----------------------------------------------------------------
   02/06/2018 00:15:00      1.280     0.000     0.478    87.478
   02/06/2018 00:30:00      1.199     0.000     0.461    87.461
   02/06/2018 00:45:00      1.124     0.000     0.446    87.446
   02/06/2018 01:00:00      1.055     0.000     0.432    87.432
   02/06/2018 01:15:00      0.992     0.000     0.418    87.418
   02/06/2018 01:30:00      0.934     0.000     0.405    87.405
   02/06/2018 01:45:00      0.880     0.000     0.392    87.392
   02/06/2018 02:00:00      0.830     0.000     0.381    87.381
   02/06/2018 02:15:00      0.784     0.000     0.370    87.370
   02/06/2018 02:30:00      0.741     0.000     0.359    87.359
   02/06/2018 02:45:00      0.702     0.000     0.349    87.349
   02/06/2018 03:00:00      0.665     0.000     0.339    87.339
   02/06/2018 03:15:00      0.631     0.000     0.330    87.330
   02/06/2018 03:30:00      0.600     0.000     0.322    87.322
   02/06/2018 03:45:00      0.570     0.000     0.313    87.313
   02/06/2018 04:00:00      0.542     0.000     0.305    87.305
   02/06/2018 04:15:00      0.517     0.000     0.298    87.298
   02/06/2018 04:30:00      0.509     0.000     0.295    87.295
   02/06/2018 04:45:00      0.549     0.000     0.307    87.307
   02/06/2018 05:00:00      0.655     0.000     0.337    87.337
   02/06/2018 05:15:00      0.875     0.000     0.391    87.391
   02/06/2018 05:30:00      1.317     0.000     0.485    87.485
   02/06/2018 05:45:00      1.989     0.000     0.602    87.602
   02/06/2018 06:00:00      2.863     0.000     0.725    87.725
  
  
  <<< Node St1 >>>
  ----------------------------------------------------------------
                           Inflow  Flooding     Depth      Head
  Date        Time            CFS       CFS      feet      feet
  ----------------------------------------------------------------
   02/06/2018 00:15:00      0.000     0.000     0.720    90.720
   02/06/2018 00:30:00      0.000     0.000     0.692    90.692
   02/06/2018 00:45:00      0.000     0.000     0.667    90.667
   02/06/2018 01:00:00      0.000     0.000     0.642    90.642
   02/06/2018 01:15:00      0.000     0.000     0.620    90.620
   02/06/2018 01:30:00      0.000     0.000     0.598    90.598
   02/06/2018 01:45:00      0.000     0.000     0.578    90.578
   02/06/2018 02:00:00      0.000     0.000     0.559    90.559
   02/06/2018 02:15:00      0.000     0.000     0.541    90.541
   02/06/2018 02:30:00      0.000     0.000     0.524    90.524
   02/06/2018 02:45:00      0.000     0.000     0.508    90.508
   02/06/2018 03:00:00      0.000     0.000     0.493    90.493
   02/06/2018 03:15:00      0.000     0.000     0.478    90.478
   02/06/2018 03:30:00      0.000     0.000     0.464    90.464
   02/06/2018 03:45:00      0.000     0.000     0.451    90.451
   02/06/2018 04:00:00      0.000     0.000     0.439    90.439
   02/06/2018 04:15:00      0.113     0.000     0.428    90.428
   02/06/2018 04:30:00      0.937     0.000     0.427    90.427
   02/06/2018 04:45:00      2.207     0.000     0.450    90.450
   02/06/2018 05:00:00      3.538     0.000     0.501    90.501
   02/06/2018 05:15:00      6.867     0.000     0.598    90.598
   02/06/2018 05:30:00     10.024     0.000     0.763    90.763
   02/06/2018 05:45:00     12.474     0.000     0.978    90.978
   02/06/2018 06:00:00     14.228     0.000     1.221    91.221
  
  
  ************
  Link Results
  ************
  
  <<< Link C1 >>>
  ----------------------------------------------------------------
                             Flow  Velocity     Depth  Capacity/
  Date        Time            CFS    ft/sec      feet   Setting 
  ----------------------------------------------------------------
   02/06/2018 00:15:00      0.000     0.000     0.000     0.000
   02/06/2018 00:30:00      0.000     0.000     0.000     0.000
   02/06/2018 00:45:00      0.000     0.000     0.000     0.000
   02/06/2018 01:00:00      0.000     0.000     0.000     0.000
   02/06/2018 01:15:00      0.000     0.000     0.000     0.000
   02/06/2018 01:30:00      0.000     0.000     0.000     0.000
   02/06/2018 01:45:00      0.000     0.000     0.000     0.000
   02/06/2018 02:00:00      0.000     0.000     0.000     0.000
   02/06/2018 02:15:00      0.000     0.000     0.000     0.000
   02/06/2018 02:30:00      0.000     0.000     0.000     0.000
   02/06/2018 02:45:00      0.000     0.000     0.000     0.000
   02/06/2018 03:00:00      0.000     0.000     0.000     0.000
   02/06/2018 03:15:00      0.000     0.000     0.000     0.000
   02/06/2018 03:30:00      0.000     0.000     0.000     0.000
   02/06/2018 03:45:00      0.000     0.000     0.000     0.000
   02/06/2018 04:00:00      0.000     0.000     0.000     0.000
   02/06/2018 04:15:00      0.113     1.483     0.120     0.024
   02/06/2018 04:30:00      0.937     2.647     0.340     0.113
   02/06/2018 04:45:00      2.207     3.386     0.521     0.207
   02/06/2018 05:00:00      3.538     3.875     0.665     0.291
   02/06/2018 05:15:00      6.867     4.680     0.948     0.467
   02/06/2018 05:30:00     10.024     5.242     1.172     0.609
   02/06/2018 05:45:00     12.474     5.603     1.334     0.709
   02/06/2018 06:00:00     14.228     5.826     1.452     0.777
  
  
  <<< Link C2 >>>
  ----------------------------------------------------------------
                             Flow  Velocity     Depth  Capacity/
  Date        Time            CFS    ft/sec      feet   Setting 
  ----------------------------------------------------------------
   02/06/2018 00:15:00      1.270     3.359     0.485     0.481
   02/06/2018 00:30:00      1.190     3.306     0.467     0.458
   02/06/2018 00:45:00      1.115     3.253     0.450     0.437
   02/06/2018 01:00:00      1.047     3.200     0.434     0.417
   02/06/2018 01:15:00      0.984     3.147     0.420     0.398
   02/06/2018 01:30:00      0.927     3.098     0.406     0.381
   02/06/2018 01:45:00      0.873     3.050     0.393     0.365
   02/06/2018 02:00:00      0.824     3.003     0.380     0.349
   02/06/2018 02:15:00      0.778     2.956     0.369     0.335
   02/06/2018 02:30:00      0.736     2.912     0.358     0.322
   02/06/2018 02:45:00      0.697     2.868     0.348     0.309
   02/06/2018 03:00:00      0.661     2.826     0.338     0.298
   02/06/2018 03:15:00      0.627     2.785     0.329     0.287
   02/06/2018 03:30:00      0.595     2.746     0.320     0.276
   02/06/2018 03:45:00      0.566     2.706     0.312     0.266
   02/06/2018 04:00:00      0.539     2.668     0.304     0.257
   02/06/2018 04:15:00      0.514     2.634     0.297     0.249
   02/06/2018 04:30:00      0.511     2.637     0.295     0.247
   02/06/2018 04:45:00      0.559     2.718     0.308     0.262
   02/06/2018 05:00:00      0.675     2.876     0.339     0.299
   02/06/2018 05:15:00      0.916     3.144     0.398     0.371
   02/06/2018 05:30:00      1.384     3.496     0.503     0.504
   02/06/2018 05:45:00      2.145     3.860     0.666     0.707
   02/06/2018 06:00:00      2.864     3.976     0.863     0.917
  
  
  <<< Link C3 >>>
  ----------------------------------------------------------------
                             Flow  Velocity     Depth  Capacity/
  Date        Time            CFS    ft/sec      feet   Setting 
  ----------------------------------------------------------------
   02/06/2018 00:15:00      1.280     3.193     0.508     0.510
   02/06/2018 00:30:00      1.199     3.137     0.490     0.487
   02/06/2018 00:45:00      1.124     3.081     0.472     0.465
   02/06/2018 01:00:00      1.055     3.027     0.456     0.444
   02/06/2018 01:15:00      0.992     2.976     0.441     0.424
   02/06/2018 01:30:00      0.934     2.923     0.426     0.407
   02/06/2018 01:45:00      0.880     2.875     0.413     0.390
   02/06/2018 02:00:00      0.830     2.830     0.400     0.373
   02/06/2018 02:15:00      0.784     2.784     0.388     0.359
   02/06/2018 02:30:00      0.741     2.739     0.377     0.345
   02/06/2018 02:45:00      0.702     2.698     0.366     0.331
   02/06/2018 03:00:00      0.665     2.658     0.355     0.319
   02/06/2018 03:15:00      0.631     2.619     0.346     0.307
   02/06/2018 03:30:00      0.600     2.579     0.337     0.296
   02/06/2018 03:45:00      0.570     2.543     0.328     0.285
   02/06/2018 04:00:00      0.542     2.509     0.319     0.275
   02/06/2018 04:15:00      0.517     2.475     0.312     0.266
   02/06/2018 04:30:00      0.509     2.462     0.309     0.263
   02/06/2018 04:45:00      0.549     2.515     0.322     0.278
   02/06/2018 05:00:00      0.655     2.642     0.353     0.316
   02/06/2018 05:15:00      0.875     2.861     0.412     0.389
   02/06/2018 05:30:00      1.317     3.205     0.518     0.523
   02/06/2018 05:45:00      1.989     3.565     0.668     0.710
   02/06/2018 06:00:00      2.863     3.975     0.863     0.917
  
  
  <<< Link R1 >>>
  ----------------------------------------------------------------
                             Flow  Velocity     Depth  Capacity/
  Date        Time            CFS    ft/sec      feet   Setting 
  ----------------------------------------------------------------
   02/06/2018 00:15:00      1.266     0.000     1.000     1.000
   02/06/2018 00:30:00      1.186     0.000     1.000     1.000
   02/06/2018 00:45:00      1.112     0.000     1.000     1.000
   02/06/2018 01:00:00      1.044     0.000     1.000     1.000
   02/06/2018 01:15:00      0.982     0.000     1.000     1.000
   02/06/2018 01:30:00      0.924     0.000     1.000     1.000
   02/06/2018 01:45:00      0.871     0.000     1.000     1.000
   02/06/2018 02:00:00      0.822     0.000     1.000     1.000
   02/06/2018 02:15:00      0.776     0.000     1.000     1.000
   02/06/2018 02:30:00      0.734     0.000     1.000     1.000
   02/06/2018 02:45:00      0.695     0.000     1.000     1.000
   02/06/2018 03:00:00      0.659     0.000     1.000     1.000
   02/06/2018 03:15:00      0.625     0.000     1.000     1.000
   02/06/2018 03:30:00      0.594     0.000     1.000     1.000
   02/06/2018 03:45:00      0.564     0.000     1.000     1.000
   02/06/2018 04:00:00      0.537     0.000     1.000     1.000
   02/06/2018 04:15:00      0.513     0.000     1.000     1.000
   02/06/2018 04:30:00      0.512     0.000     1.000     1.000
   02/06/2018 04:45:00      0.564     0.000     1.000     1.000
   02/06/2018 05:00:00      0.683     0.000     1.000     1.000
   02/06/2018 05:15:00      0.933     0.000     1.000     1.000
   02/06/2018 05:30:00      1.410     0.000     1.000     1.000
   02/06/2018 05:45:00      2.174     0.000     1.000     1.000
   02/06/2018 06:00:00      2.885     0.000     1.000     1.000
  

  Analysis begun on:  Mon Apr 23 13:42:36 2018
  Analysis ended on:  Mon Apr 23 13:42:36 2018
  Total elapsed time: < 1 sec