
  EPA STORM WATER MANAGEMENT MODEL - VERSION 5.1 (Build 5.1.012)
  --------------------------------------------------------------

  
  *********************************************************
  NOTE: The summary statistics displayed in this report are
  based on results found at every computational time step,  
  not just on results from each reporting time step.
  *********************************************************
  
  ****************
  Analysis Options
  ****************
  Flow Units ............... CFS
  Process Models:
    Rainfall/Runoff ........ YES
    RDII ................... NO
    Snowmelt ............... NO
    Groundwater ............ NO
    Flow Routing ........... YES
    Ponding Allowed ........ NO
    Water Quality .......... NO
  Infiltration Method ...... MODIFIED_GREEN_AMPT
  Flow Routing Method ...... DYNWAVE
  Starting Date ............ 02/06/2018 00:00:00
  Ending Date .............. 02/06/2018 16:00:00
  Antecedent Dry Days ...... 0.0
  Report Time Step ......... 00:15:00
  Wet Time Step ............ 00:05:00
  Dry Time Step ............ 01:00:00
  Routing Time Step ........ 10.00 sec
  Variable Time Step ....... YES
  Maximum Trials ........... 8
  Number of Threads ........ 1
  Head Tolerance ........... 0.005000 ft
  
  
  **************************        Volume         Depth
  Runoff Quantity Continuity     acre-feet        inches
  **************************     ---------       -------
  Total Precipitation ......        17.792         1.525
  Evaporation Loss .........         0.000         0.000
  Infiltration Loss ........         8.896         0.762
  Surface Runoff ...........         8.516         0.730
  Final Storage ............         0.383         0.033
  Continuity Error (%) .....        -0.017
  
  
  **************************        Volume        Volume
  Flow Routing Continuity        acre-feet      10^6 gal
  **************************     ---------     ---------
  Dry Weather Inflow .......         0.000         0.000
  Wet Weather Inflow .......         8.515         2.775
  Groundwater Inflow .......         0.000         0.000
  RDII Inflow ..............         0.000         0.000
  External Inflow ..........         0.000         0.000
  External Outflow .........         3.446         1.123
  Flooding Loss ............         1.587         0.517
  Evaporation Loss .........         0.000         0.000
  Exfiltration Loss ........         0.000         0.000
  Initial Stored Volume ....         1.380         0.450
  Final Stored Volume ......         5.032         1.640
  Continuity Error (%) .....        -1.724
  
  
  *************************
  Highest Continuity Errors
  *************************
  Node J2 (-4.20%)
  
  
  ***************************
  Time-Step Critical Elements
  ***************************
  None
  
  
  ********************************
  Highest Flow Instability Indexes
  ********************************
  Link R1 (16)
  Link R2 (16)
  Link C2 (14)
  
  
  *************************
  Routing Time Step Summary
  *************************
  Minimum Time Step           :     1.31 sec
  Average Time Step           :     9.99 sec
  Maximum Time Step           :    10.00 sec
  Percent in Steady State     :    -0.00
  Average Iterations per Step :     3.42
  Percent Not Converging      :    19.22
  
  
  ***************************
  Subcatchment Runoff Summary
  ***************************
  
  --------------------------------------------------------------------------------------------------------
                            Total      Total      Total      Total      Total       Total     Peak  Runoff
                           Precip      Runon       Evap      Infil     Runoff      Runoff   Runoff   Coeff
  Subcatchment                 in         in         in         in         in    10^6 gal      CFS
  --------------------------------------------------------------------------------------------------------
  S1                         1.52       0.00       0.00       0.76       0.73        1.39    14.35   0.479
  S2                         1.52       0.00       0.00       0.76       0.73        1.39    14.35   0.478
  
  
  ******************
  Node Depth Summary
  ******************
  
  ---------------------------------------------------------------------------------
                                 Average  Maximum  Maximum  Time of Max    Reported
                                   Depth    Depth      HGL   Occurrence   Max Depth
  Node                 Type         Feet     Feet     Feet  days hr:min        Feet
  ---------------------------------------------------------------------------------
  J1                   JUNCTION     0.48     1.55    97.55     0  06:01        1.54
  J2                   JUNCTION     1.64     2.84    92.84     0  10:48        2.83
  J3                   JUNCTION     1.40     2.00    90.00     0  08:19        2.00
  J4                   JUNCTION     1.11     4.00   100.00     0  06:13        4.00
  Out1                 OUTFALL      0.67     0.80    87.80     0  08:25        0.80
  St1                  STORAGE      2.07     3.34    93.34     0  09:30        3.34
  St2                  STORAGE      1.83     3.24    93.24     0  11:14        3.24
  
  
  *******************
  Node Inflow Summary
  *******************
  
  -------------------------------------------------------------------------------------------------
                                  Maximum  Maximum                  Lateral       Total        Flow
                                  Lateral    Total  Time of Max      Inflow      Inflow     Balance
                                   Inflow   Inflow   Occurrence      Volume      Volume       Error
  Node                 Type           CFS      CFS  days hr:min    10^6 gal    10^6 gal     Percent
  -------------------------------------------------------------------------------------------------
  J1                   JUNCTION     14.35    14.35     0  06:00        1.39        1.39       0.021
  J2                   JUNCTION      0.00     6.88     0  00:00           0        1.17      -4.030
  J3                   JUNCTION      0.00     3.92     0  10:49           0        1.18       0.224
  J4                   JUNCTION     14.35    14.35     0  07:00        1.38        1.38       0.012
  Out1                 OUTFALL       0.00     3.47     0  09:52           0        1.12       0.000
  St1                  STORAGE       0.00    14.35     0  06:02           0        1.61      -0.169
  St2                  STORAGE       0.00     7.57     0  06:38           0        1.18      -0.126
  
  
  **********************
  Node Surcharge Summary
  **********************
  
  Surcharging occurs when water rises above the top of the highest conduit.
  ---------------------------------------------------------------------
                                               Max. Height   Min. Depth
                                   Hours       Above Crown    Below Rim
  Node                 Type      Surcharged           Feet         Feet
  ---------------------------------------------------------------------
  J2                   JUNCTION        9.59          1.835        2.165
  J3                   JUNCTION       10.09          1.000        0.000
  J4                   JUNCTION        4.06          3.000        0.000
  
  
  *********************
  Node Flooding Summary
  *********************
  
  Flooding refers to all water that overflows a node, whether it ponds or not.
  --------------------------------------------------------------------------
                                                             Total   Maximum
                                 Maximum   Time of Max       Flood    Ponded
                        Hours       Rate    Occurrence      Volume     Depth
  Node                 Flooded       CFS   days hr:min    10^6 gal      Feet
  --------------------------------------------------------------------------
  J3                      7.68      0.44      0  10:49       0.059     0.000
  J4                      3.66      7.56      0  08:00       0.458     0.000
  
  
  **********************
  Storage Volume Summary
  **********************
  
  --------------------------------------------------------------------------------------------------
                         Average     Avg  Evap Exfil       Maximum     Max    Time of Max    Maximum
                          Volume    Pcnt  Pcnt  Pcnt        Volume    Pcnt     Occurrence    Outflow
  Storage Unit          1000 ft3    Full  Loss  Loss      1000 ft3    Full    days hr:min        CFS
  --------------------------------------------------------------------------------------------------
  St1                     82.737      41     0     0       133.527      67       0  09:30       3.85
  St2                     73.028      37     0     0       129.679      65       0  11:14       3.44
  
  
  ***********************
  Outfall Loading Summary
  ***********************
  
  -----------------------------------------------------------
                         Flow       Avg       Max       Total
                         Freq      Flow      Flow      Volume
  Outfall Node           Pcnt       CFS       CFS    10^6 gal
  -----------------------------------------------------------
  Out1                  99.95      2.61      3.47       1.123
  -----------------------------------------------------------
  System                99.95      2.61      3.47       1.123
  
  
  ********************
  Link Flow Summary
  ********************
  
  -----------------------------------------------------------------------------
                                 Maximum  Time of Max   Maximum    Max/    Max/
                                  |Flow|   Occurrence   |Veloc|    Full    Full
  Link                 Type          CFS  days hr:min    ft/sec    Flow   Depth
  -----------------------------------------------------------------------------
  C1                   CONDUIT     14.35     0  06:02      5.85    0.98    0.73
  C2                   CONDUIT      3.92     0  10:49      5.80    1.20    1.00
  C3                   CONDUIT      3.47     0  09:52      4.67    1.50    0.90
  C4                   CONDUIT      7.08     0  06:38      9.40    1.25    1.00
  R1                   ORIFICE      3.85     0  07:44                          
  R2                   ORIFICE      3.44     0  00:00                          
  
  
  ***************************
  Flow Classification Summary
  ***************************
  
  -------------------------------------------------------------------------------------
                      Adjusted    ---------- Fraction of Time in Flow Class ---------- 
                       /Actual         Up    Down  Sub   Sup   Up    Down  Norm  Inlet 
  Conduit               Length    Dry  Dry   Dry   Crit  Crit  Crit  Crit  Ltd   Ctrl  
  -------------------------------------------------------------------------------------
  C1                      1.00   0.25  0.00  0.00  0.00  0.00  0.00  0.75  0.00  0.00
  C2                      1.00   0.00  0.00  0.00  1.00  0.00  0.00  0.00  0.37  0.00
  C3                      1.00   0.00  0.00  0.00  1.00  0.00  0.00  0.00  0.00  0.00
  C4                      1.00   0.00  0.31  0.00  0.61  0.08  0.00  0.00  0.39  0.00
  
  
  *************************
  Conduit Surcharge Summary
  *************************
  
  ----------------------------------------------------------------------------
                                                           Hours        Hours 
                         --------- Hours Full --------   Above Full   Capacity
  Conduit                Both Ends  Upstream  Dnstream   Normal Flow   Limited
  ----------------------------------------------------------------------------
  C2                          9.59      9.59     10.09      8.53         8.53
  C3                          0.01     10.09      0.01     10.25         0.01
  C4                          3.58      4.06      9.34      3.89         3.37
  
  
  ********************
  Subcatchment Results
  ********************
  
  <<< Subcatchment S1 >>>
  ---------------------------------------------------
  Date        Time        Precip.    Losses    Runoff
                            in/hr     in/hr       CFS
  ---------------------------------------------------
   02/06/2018 00:15:00      0.000     0.000    0.0000
   02/06/2018 00:30:00      0.000     0.000    0.0000
   02/06/2018 00:45:00      0.000     0.000    0.0000
   02/06/2018 01:00:00      0.000     0.000    0.0000
   02/06/2018 01:15:00      0.000     0.000    0.0000
   02/06/2018 01:30:00      0.000     0.000    0.0000
   02/06/2018 01:45:00      0.000     0.000    0.0000
   02/06/2018 02:00:00      0.000     0.000    0.0000
   02/06/2018 02:15:00      0.000     0.000    0.0000
   02/06/2018 02:30:00      0.000     0.000    0.0000
   02/06/2018 02:45:00      0.000     0.000    0.0000
   02/06/2018 03:00:00      0.000     0.000    0.0000
   02/06/2018 03:15:00      0.000     0.000    0.0000
   02/06/2018 03:30:00      0.000     0.000    0.0000
   02/06/2018 03:45:00      0.000     0.000    0.0000
   02/06/2018 04:00:00      0.250     0.125    0.0000
   02/06/2018 04:15:00      0.250     0.125    0.1912
   02/06/2018 04:30:00      0.250     0.125    1.0842
   02/06/2018 04:45:00      0.250     0.125    2.3486
   02/06/2018 05:00:00      0.500     0.250    3.6614
   02/06/2018 05:15:00      0.500     0.250    7.1546
   02/06/2018 05:30:00      0.500     0.250   10.2508
   02/06/2018 05:45:00      0.500     0.250   12.6421
   02/06/2018 06:00:00      0.400     0.200   14.3490
   02/06/2018 06:15:00      0.400     0.200   14.2683
   02/06/2018 06:30:00      0.400     0.200   14.2158
   02/06/2018 06:45:00      0.400     0.200   14.1816
   02/06/2018 07:00:00      0.250     0.125   14.1593
   02/06/2018 07:15:00      0.250     0.125   12.3546
   02/06/2018 07:30:00      0.250     0.125   11.2045
   02/06/2018 07:45:00      0.250     0.125   10.4498
   02/06/2018 08:00:00      0.125     0.062    9.9442
   02/06/2018 08:15:00      0.125     0.062    8.2903
   02/06/2018 08:30:00      0.125     0.062    7.1918
   02/06/2018 08:45:00      0.125     0.062    6.4374
   02/06/2018 09:00:00      0.000     0.000    5.9057
   02/06/2018 09:15:00      0.000     0.000    4.4510
   02/06/2018 09:30:00      0.000     0.000    3.4525
   02/06/2018 09:45:00      0.000     0.000    2.7415
   02/06/2018 10:00:00      0.000     0.000    2.2198
   02/06/2018 10:15:00      0.000     0.000    1.8271
   02/06/2018 10:30:00      0.000     0.000    1.5253
   02/06/2018 10:45:00      0.000     0.000    1.2888
   02/06/2018 11:00:00      0.000     0.000    1.1007
   02/06/2018 11:15:00      0.000     0.000    0.9489
   02/06/2018 11:30:00      0.000     0.000    0.8249
   02/06/2018 11:45:00      0.000     0.000    0.7224
   02/06/2018 12:00:00      0.000     0.000    0.6369
   02/06/2018 12:15:00      0.000     0.000    0.5649
   02/06/2018 12:30:00      0.000     0.000    0.5038
   02/06/2018 12:45:00      0.000     0.000    0.4516
   02/06/2018 13:00:00      0.000     0.000    0.4066
   02/06/2018 13:15:00      0.000     0.000    0.3677
   02/06/2018 13:30:00      0.000     0.000    0.3338
   02/06/2018 13:45:00      0.000     0.000    0.3041
   02/06/2018 14:00:00      0.000     0.000    0.2780
   02/06/2018 14:15:00      0.000     0.000    0.2549
   02/06/2018 14:30:00      0.000     0.000    0.2345
   02/06/2018 14:45:00      0.000     0.000    0.2162
   02/06/2018 15:00:00      0.000     0.000    0.1999
   02/06/2018 15:15:00      0.000     0.000    0.1852
   02/06/2018 15:30:00      0.000     0.000    0.1720
   02/06/2018 15:45:00      0.000     0.000    0.1601
  
  
  <<< Subcatchment S2 >>>
  ---------------------------------------------------
  Date        Time        Precip.    Losses    Runoff
                            in/hr     in/hr       CFS
  ---------------------------------------------------
   02/06/2018 00:15:00      0.000     0.000    0.0000
   02/06/2018 00:30:00      0.000     0.000    0.0000
   02/06/2018 00:45:00      0.000     0.000    0.0000
   02/06/2018 01:00:00      0.000     0.000    0.0000
   02/06/2018 01:15:00      0.000     0.000    0.0000
   02/06/2018 01:30:00      0.000     0.000    0.0000
   02/06/2018 01:45:00      0.000     0.000    0.0000
   02/06/2018 02:00:00      0.000     0.000    0.0000
   02/06/2018 02:15:00      0.000     0.000    0.0000
   02/06/2018 02:30:00      0.000     0.000    0.0000
   02/06/2018 02:45:00      0.000     0.000    0.0000
   02/06/2018 03:00:00      0.000     0.000    0.0000
   02/06/2018 03:15:00      0.000     0.000    0.0000
   02/06/2018 03:30:00      0.000     0.000    0.0000
   02/06/2018 03:45:00      0.000     0.000    0.0000
   02/06/2018 04:00:00      0.000     0.000    0.0000
   02/06/2018 04:15:00      0.000     0.000    0.0000
   02/06/2018 04:30:00      0.000     0.000    0.0000
   02/06/2018 04:45:00      0.000     0.000    0.0000
   02/06/2018 05:00:00      0.250     0.125    0.0000
   02/06/2018 05:15:00      0.250     0.125    0.1912
   02/06/2018 05:30:00      0.250     0.125    1.0842
   02/06/2018 05:45:00      0.250     0.125    2.3486
   02/06/2018 06:00:00      0.500     0.250    3.6614
   02/06/2018 06:15:00      0.500     0.250    7.1546
   02/06/2018 06:30:00      0.500     0.250   10.2508
   02/06/2018 06:45:00      0.500     0.250   12.6421
   02/06/2018 07:00:00      0.400     0.200   14.3490
   02/06/2018 07:15:00      0.400     0.200   14.2683
   02/06/2018 07:30:00      0.400     0.200   14.2158
   02/06/2018 07:45:00      0.400     0.200   14.1816
   02/06/2018 08:00:00      0.250     0.125   14.1593
   02/06/2018 08:15:00      0.250     0.125   12.3546
   02/06/2018 08:30:00      0.250     0.125   11.2045
   02/06/2018 08:45:00      0.250     0.125   10.4498
   02/06/2018 09:00:00      0.125     0.062    9.9442
   02/06/2018 09:15:00      0.125     0.062    8.2903
   02/06/2018 09:30:00      0.125     0.062    7.1918
   02/06/2018 09:45:00      0.125     0.062    6.4374
   02/06/2018 10:00:00      0.000     0.000    5.9057
   02/06/2018 10:15:00      0.000     0.000    4.4510
   02/06/2018 10:30:00      0.000     0.000    3.4525
   02/06/2018 10:45:00      0.000     0.000    2.7415
   02/06/2018 11:00:00      0.000     0.000    2.2198
   02/06/2018 11:15:00      0.000     0.000    1.8271
   02/06/2018 11:30:00      0.000     0.000    1.5253
   02/06/2018 11:45:00      0.000     0.000    1.2888
   02/06/2018 12:00:00      0.000     0.000    1.1007
   02/06/2018 12:15:00      0.000     0.000    0.9489
   02/06/2018 12:30:00      0.000     0.000    0.8249
   02/06/2018 12:45:00      0.000     0.000    0.7224
   02/06/2018 13:00:00      0.000     0.000    0.6369
   02/06/2018 13:15:00      0.000     0.000    0.5649
   02/06/2018 13:30:00      0.000     0.000    0.5038
   02/06/2018 13:45:00      0.000     0.000    0.4516
   02/06/2018 14:00:00      0.000     0.000    0.4066
   02/06/2018 14:15:00      0.000     0.000    0.3677
   02/06/2018 14:30:00      0.000     0.000    0.3338
   02/06/2018 14:45:00      0.000     0.000    0.3041
   02/06/2018 15:00:00      0.000     0.000    0.2780
   02/06/2018 15:15:00      0.000     0.000    0.2549
   02/06/2018 15:30:00      0.000     0.000    0.2345
   02/06/2018 15:45:00      0.000     0.000    0.2162
  
  
  ************
  Node Results
  ************
  
  <<< Node J1 >>>
  ----------------------------------------------------------------
                           Inflow  Flooding     Depth      Head
  Date        Time            CFS       CFS      feet      feet
  ----------------------------------------------------------------
   02/06/2018 00:15:00      0.000     0.000     0.000    96.000
   02/06/2018 00:30:00      0.000     0.000     0.000    96.000
   02/06/2018 00:45:00      0.000     0.000     0.000    96.000
   02/06/2018 01:00:00      0.000     0.000     0.000    96.000
   02/06/2018 01:15:00      0.000     0.000     0.000    96.000
   02/06/2018 01:30:00      0.000     0.000     0.000    96.000
   02/06/2018 01:45:00      0.000     0.000     0.000    96.000
   02/06/2018 02:00:00      0.000     0.000     0.000    96.000
   02/06/2018 02:15:00      0.000     0.000     0.000    96.000
   02/06/2018 02:30:00      0.000     0.000     0.000    96.000
   02/06/2018 02:45:00      0.000     0.000     0.000    96.000
   02/06/2018 03:00:00      0.000     0.000     0.000    96.000
   02/06/2018 03:15:00      0.000     0.000     0.000    96.000
   02/06/2018 03:30:00      0.000     0.000     0.000    96.000
   02/06/2018 03:45:00      0.000     0.000     0.000    96.000
   02/06/2018 04:00:00      0.000     0.000     0.000    96.000
   02/06/2018 04:15:00      0.191     0.000     0.131    96.131
   02/06/2018 04:30:00      1.082     0.000     0.348    96.348
   02/06/2018 04:45:00      2.346     0.000     0.529    96.529
   02/06/2018 05:00:00      3.659     0.000     0.672    96.672
   02/06/2018 05:15:00      7.149     0.000     0.968    96.968
   02/06/2018 05:30:00     10.246     0.000     1.211    97.211
   02/06/2018 05:45:00     12.638     0.000     1.399    97.399
   02/06/2018 06:00:00     14.346     0.000     1.545    97.545
   02/06/2018 06:15:00     14.268     0.000     1.545    97.545
   02/06/2018 06:30:00     14.216     0.000     1.540    97.540
   02/06/2018 06:45:00     14.182     0.000     1.537    97.537
   02/06/2018 07:00:00     14.160     0.000     1.535    97.535
   02/06/2018 07:15:00     12.371     0.000     1.390    97.390
   02/06/2018 07:30:00     11.215     0.000     1.298    97.298
   02/06/2018 07:45:00     10.457     0.000     1.239    97.239
   02/06/2018 08:00:00      9.949     0.000     1.199    97.199
   02/06/2018 08:15:00      8.305     0.000     1.076    97.076
   02/06/2018 08:30:00      7.202     0.000     0.989    96.989
   02/06/2018 08:45:00      6.444     0.000     0.928    96.928
   02/06/2018 09:00:00      5.911     0.000     0.883    96.883
   02/06/2018 09:15:00      4.464     0.000     0.762    96.762
   02/06/2018 09:30:00      3.462     0.000     0.665    96.665
   02/06/2018 09:45:00      2.748     0.000     0.590    96.590
   02/06/2018 10:00:00      2.225     0.000     0.530    96.530
   02/06/2018 10:15:00      1.831     0.000     0.481    96.481
   02/06/2018 10:30:00      1.528     0.000     0.439    96.439
   02/06/2018 10:45:00      1.291     0.000     0.404    96.404
   02/06/2018 11:00:00      1.103     0.000     0.374    96.374
   02/06/2018 11:15:00      0.950     0.000     0.348    96.348
   02/06/2018 11:30:00      0.826     0.000     0.325    96.325
   02/06/2018 11:45:00      0.723     0.000     0.305    96.305
   02/06/2018 12:00:00      0.638     0.000     0.288    96.288
   02/06/2018 12:15:00      0.566     0.000     0.272    96.272
   02/06/2018 12:30:00      0.504     0.000     0.257    96.257
   02/06/2018 12:45:00      0.452     0.000     0.244    96.244
   02/06/2018 13:00:00      0.407     0.000     0.233    96.233
   02/06/2018 13:15:00      0.368     0.000     0.222    96.222
   02/06/2018 13:30:00      0.334     0.000     0.212    96.212
   02/06/2018 13:45:00      0.304     0.000     0.203    96.203
   02/06/2018 14:00:00      0.278     0.000     0.195    96.195
   02/06/2018 14:15:00      0.255     0.000     0.187    96.187
   02/06/2018 14:30:00      0.235     0.000     0.180    96.180
   02/06/2018 14:45:00      0.216     0.000     0.173    96.173
   02/06/2018 15:00:00      0.200     0.000     0.167    96.167
   02/06/2018 15:15:00      0.185     0.000     0.162    96.162
   02/06/2018 15:30:00      0.172     0.000     0.156    96.156
   02/06/2018 15:45:00      0.160     0.000     0.151    96.151
  
  
  <<< Node J2 >>>
  ----------------------------------------------------------------
                           Inflow  Flooding     Depth      Head
  Date        Time            CFS       CFS      feet      feet
  ----------------------------------------------------------------
   02/06/2018 00:15:00      1.648     0.000     0.502    90.502
   02/06/2018 00:30:00      1.581     0.000     0.490    90.490
   02/06/2018 00:45:00      1.517     0.000     0.479    90.479
   02/06/2018 01:00:00      1.457     0.000     0.468    90.468
   02/06/2018 01:15:00      1.400     0.000     0.457    90.457
   02/06/2018 01:30:00      1.345     0.000     0.447    90.447
   02/06/2018 01:45:00      1.294     0.000     0.437    90.437
   02/06/2018 02:00:00      1.245     0.000     0.428    90.428
   02/06/2018 02:15:00      1.198     0.000     0.419    90.419
   02/06/2018 02:30:00      1.154     0.000     0.410    90.410
   02/06/2018 02:45:00      1.111     0.000     0.402    90.402
   02/06/2018 03:00:00      1.071     0.000     0.394    90.394
   02/06/2018 03:15:00      1.032     0.000     0.386    90.386
   02/06/2018 03:30:00      0.996     0.000     0.379    90.379
   02/06/2018 03:45:00      0.961     0.000     0.371    90.371
   02/06/2018 04:00:00      0.927     0.000     0.364    90.364
   02/06/2018 04:15:00      0.897     0.000     0.358    90.358
   02/06/2018 04:30:00      0.883     0.000     0.355    90.355
   02/06/2018 04:45:00      0.910     0.000     0.360    90.360
   02/06/2018 05:00:00      0.994     0.000     0.377    90.377
   02/06/2018 05:15:00      1.199     0.000     0.416    90.416
   02/06/2018 05:30:00      1.650     0.000     0.498    90.498
   02/06/2018 05:45:00      2.623     0.000     0.638    90.638
   02/06/2018 06:00:00      3.081     0.000     0.719    90.719
   02/06/2018 06:15:00      3.343     0.000     0.869    90.869
   02/06/2018 06:30:00      3.448     0.000     1.071    91.071
   02/06/2018 06:45:00      3.583     0.000     1.255    91.255
   02/06/2018 07:00:00      3.710     0.000     1.437    91.437
   02/06/2018 07:15:00      3.801     0.000     1.611    91.611
   02/06/2018 07:30:00      3.839     0.000     1.774    91.774
   02/06/2018 07:45:00      3.848     0.000     1.928    91.928
   02/06/2018 08:00:00      3.841     0.000     2.075    92.075
   02/06/2018 08:15:00      3.807     0.000     2.211    92.211
   02/06/2018 08:30:00      3.752     0.000     2.326    92.326
   02/06/2018 08:45:00      3.695     0.000     2.422    92.422
   02/06/2018 09:00:00      3.661     0.000     2.494    92.494
   02/06/2018 09:15:00      3.695     0.000     2.543    92.543
   02/06/2018 09:30:00      3.741     0.000     2.606    92.606
   02/06/2018 09:45:00      3.788     0.000     2.671    92.671
   02/06/2018 10:00:00      3.834     0.000     2.735    92.735
   02/06/2018 10:15:00      3.867     0.000     2.785    92.785
   02/06/2018 10:30:00      3.888     0.000     2.816    92.816
   02/06/2018 10:45:00      3.899     0.000     2.833    92.833
   02/06/2018 11:00:00      3.867     0.000     2.775    92.775
   02/06/2018 11:15:00      3.865     0.000     2.770    92.770
   02/06/2018 11:30:00      3.860     0.000     2.760    92.760
   02/06/2018 11:45:00      3.854     0.000     2.746    92.746
   02/06/2018 12:00:00      3.860     0.000     2.781    92.781
   02/06/2018 12:15:00      3.846     0.000     2.761    92.761
   02/06/2018 12:30:00      2.701     0.000     2.714    92.714
   02/06/2018 12:45:00      2.688     0.000     2.697    92.697
   02/06/2018 13:00:00      2.674     0.000     2.679    92.679
   02/06/2018 13:15:00      2.658     0.000     2.659    92.659
   02/06/2018 13:30:00      2.642     0.000     2.639    92.639
   02/06/2018 13:45:00      3.291     0.000     2.618    92.618
   02/06/2018 14:00:00      3.220     0.000     2.619    92.619
   02/06/2018 14:15:00      3.990     0.000     2.585    92.585
   02/06/2018 14:30:00      4.185     0.000     2.567    92.567
   02/06/2018 14:45:00      4.167     0.000     2.538    92.538
   02/06/2018 15:00:00      4.149     0.000     2.509    92.509
   02/06/2018 15:15:00      2.892     0.000     2.454    92.454
   02/06/2018 15:30:00      3.226     0.000     2.419    92.419
   02/06/2018 15:45:00      3.878     0.000     2.407    92.407
  
  
  <<< Node J3 >>>
  ----------------------------------------------------------------
                           Inflow  Flooding     Depth      Head
  Date        Time            CFS       CFS      feet      feet
  ----------------------------------------------------------------
   02/06/2018 00:15:00      1.650     0.000     0.637    88.637
   02/06/2018 00:30:00      1.584     0.000     0.620    88.620
   02/06/2018 00:45:00      1.520     0.000     0.603    88.603
   02/06/2018 01:00:00      1.460     0.000     0.587    88.587
   02/06/2018 01:15:00      1.402     0.000     0.572    88.572
   02/06/2018 01:30:00      1.348     0.000     0.558    88.558
   02/06/2018 01:45:00      1.296     0.000     0.545    88.545
   02/06/2018 02:00:00      1.247     0.000     0.532    88.532
   02/06/2018 02:15:00      1.201     0.000     0.520    88.520
   02/06/2018 02:30:00      1.156     0.000     0.508    88.508
   02/06/2018 02:45:00      1.113     0.000     0.497    88.497
   02/06/2018 03:00:00      1.072     0.000     0.486    88.486
   02/06/2018 03:15:00      1.034     0.000     0.476    88.476
   02/06/2018 03:30:00      0.997     0.000     0.466    88.466
   02/06/2018 03:45:00      0.962     0.000     0.457    88.457
   02/06/2018 04:00:00      0.929     0.000     0.448    88.448
   02/06/2018 04:15:00      0.898     0.000     0.439    88.439
   02/06/2018 04:30:00      0.883     0.000     0.434    88.434
   02/06/2018 04:45:00      0.908     0.000     0.440    88.440
   02/06/2018 05:00:00      0.989     0.000     0.460    88.460
   02/06/2018 05:15:00      1.185     0.000     0.507    88.507
   02/06/2018 05:30:00      1.625     0.000     0.615    88.615
   02/06/2018 05:45:00      2.406     0.000     0.841    88.841
   02/06/2018 06:00:00      2.835     0.000     1.261    89.261
   02/06/2018 06:15:00      3.007     0.000     1.447    89.447
   02/06/2018 06:30:00      2.978     0.000     1.415    89.415
   02/06/2018 06:45:00      3.060     0.000     1.506    89.506
   02/06/2018 07:00:00      3.140     0.000     1.597    89.597
   02/06/2018 07:15:00      3.214     0.000     1.684    89.684
   02/06/2018 07:30:00      3.281     0.000     1.765    89.765
   02/06/2018 07:45:00      3.344     0.000     1.842    89.842
   02/06/2018 08:00:00      3.403     0.000     1.915    89.915
   02/06/2018 08:15:00      3.456     0.000     1.982    89.982
   02/06/2018 08:30:00      3.530     0.060     2.000    90.000
   02/06/2018 08:45:00      3.603     0.132     2.000    90.000
   02/06/2018 09:00:00      3.656     0.185     2.000    90.000
   02/06/2018 09:15:00      3.693     0.222     2.000    90.000
   02/06/2018 09:30:00      3.737     0.266     2.000    90.000
   02/06/2018 09:45:00      3.784     0.313     2.000    90.000
   02/06/2018 10:00:00      3.829     0.358     2.000    90.000
   02/06/2018 10:15:00      3.864     0.393     2.000    90.000
   02/06/2018 10:30:00      3.886     0.415     2.000    90.000
   02/06/2018 10:45:00      3.898     0.427     2.000    90.000
   02/06/2018 11:00:00      3.889     0.418     2.000    90.000
   02/06/2018 11:15:00      3.885     0.414     2.000    90.000
   02/06/2018 11:30:00      3.878     0.407     2.000    90.000
   02/06/2018 11:45:00      3.868     0.397     2.000    90.000
   02/06/2018 12:00:00      3.862     0.391     2.000    90.000
   02/06/2018 12:15:00      3.848     0.377     2.000    90.000
   02/06/2018 12:30:00      3.857     0.386     2.000    90.000
   02/06/2018 12:45:00      3.845     0.374     2.000    90.000
   02/06/2018 13:00:00      3.832     0.361     2.000    90.000
   02/06/2018 13:15:00      3.819     0.348     2.000    90.000
   02/06/2018 13:30:00      3.804     0.333     2.000    90.000
   02/06/2018 13:45:00      3.764     0.292     2.000    90.000
   02/06/2018 14:00:00      3.750     0.281     2.000    90.000
   02/06/2018 14:15:00      3.708     0.237     2.000    90.000
   02/06/2018 14:30:00      3.688     0.217     2.000    90.000
   02/06/2018 14:45:00      3.667     0.196     2.000    90.000
   02/06/2018 15:00:00      3.646     0.175     2.000    90.000
   02/06/2018 15:15:00      3.641     0.165     2.000    90.000
   02/06/2018 15:30:00      3.605     0.132     2.000    90.000
   02/06/2018 15:45:00      3.576     0.104     2.000    90.000
  
  
  <<< Node J4 >>>
  ----------------------------------------------------------------
                           Inflow  Flooding     Depth      Head
  Date        Time            CFS       CFS      feet      feet
  ----------------------------------------------------------------
   02/06/2018 00:15:00      0.000     0.000     0.000    96.000
   02/06/2018 00:30:00      0.000     0.000     0.000    96.000
   02/06/2018 00:45:00      0.000     0.000     0.000    96.000
   02/06/2018 01:00:00      0.000     0.000     0.000    96.000
   02/06/2018 01:15:00      0.000     0.000     0.000    96.000
   02/06/2018 01:30:00      0.000     0.000     0.000    96.000
   02/06/2018 01:45:00      0.000     0.000     0.000    96.000
   02/06/2018 02:00:00      0.000     0.000     0.000    96.000
   02/06/2018 02:15:00      0.000     0.000     0.000    96.000
   02/06/2018 02:30:00      0.000     0.000     0.000    96.000
   02/06/2018 02:45:00      0.000     0.000     0.000    96.000
   02/06/2018 03:00:00      0.000     0.000     0.000    96.000
   02/06/2018 03:15:00      0.000     0.000     0.000    96.000
   02/06/2018 03:30:00      0.000     0.000     0.000    96.000
   02/06/2018 03:45:00      0.000     0.000     0.000    96.000
   02/06/2018 04:00:00      0.000     0.000     0.000    96.000
   02/06/2018 04:15:00      0.000     0.000     0.000    96.000
   02/06/2018 04:30:00      0.000     0.000     0.000    96.000
   02/06/2018 04:45:00      0.000     0.000     0.000    96.000
   02/06/2018 05:00:00      0.000     0.000     0.000    96.000
   02/06/2018 05:15:00      0.191     0.000     0.118    96.118
   02/06/2018 05:30:00      1.082     0.000     0.291    96.291
   02/06/2018 05:45:00      2.346     0.000     0.445    96.445
   02/06/2018 06:00:00      3.659     0.000     0.581    96.581
   02/06/2018 06:15:00      7.149     0.361     4.000   100.000
   02/06/2018 06:30:00     10.251     3.306     4.000   100.000
   02/06/2018 06:45:00     12.620     5.702     4.000   100.000
   02/06/2018 07:00:00     14.333     7.478     4.000   100.000
   02/06/2018 07:15:00     14.269     7.474     4.000   100.000
   02/06/2018 07:30:00     14.216     7.486     4.000   100.000
   02/06/2018 07:45:00     14.182     7.517     4.000   100.000
   02/06/2018 08:00:00     14.160     7.559     4.000   100.000
   02/06/2018 08:15:00     12.371     5.828     4.000   100.000
   02/06/2018 08:30:00     11.215     4.737     4.000   100.000
   02/06/2018 08:45:00     10.457     4.042     4.000   100.000
   02/06/2018 09:00:00      9.949     3.595     4.000   100.000
   02/06/2018 09:15:00      8.305     2.008     4.000   100.000
   02/06/2018 09:30:00      7.202     0.966     4.000   100.000
   02/06/2018 09:45:00      6.444     0.266     4.000   100.000
   02/06/2018 10:00:00      5.911     0.000     3.520    99.520
   02/06/2018 10:15:00      4.464     0.000     0.981    96.981
   02/06/2018 10:30:00      3.462     0.000     0.611    96.611
   02/06/2018 10:45:00      2.748     0.000     0.492    96.492
   02/06/2018 11:00:00      2.225     0.000     0.436    96.436
   02/06/2018 11:15:00      1.831     0.000     0.392    96.392
   02/06/2018 11:30:00      1.528     0.000     0.355    96.355
   02/06/2018 11:45:00      1.291     0.000     0.325    96.325
   02/06/2018 12:00:00      1.103     0.000     0.299    96.299
   02/06/2018 12:15:00      0.950     0.000     0.277    96.277
   02/06/2018 12:30:00      0.826     0.000     0.258    96.258
   02/06/2018 12:45:00      0.723     0.000     0.242    96.242
   02/06/2018 13:00:00      0.638     0.000     0.227    96.227
   02/06/2018 13:15:00      0.566     0.000     0.214    96.214
   02/06/2018 13:30:00      0.504     0.000     0.202    96.202
   02/06/2018 13:45:00      0.452     0.000     0.191    96.191
   02/06/2018 14:00:00      0.407     0.000     0.182    96.182
   02/06/2018 14:15:00      0.368     0.000     0.173    96.173
   02/06/2018 14:30:00      0.334     0.000     0.165    96.165
   02/06/2018 14:45:00      0.304     0.000     0.158    96.158
   02/06/2018 15:00:00      0.278     0.000     0.151    96.151
   02/06/2018 15:15:00      0.255     0.000     0.145    96.145
   02/06/2018 15:30:00      0.235     0.000     0.139    96.139
   02/06/2018 15:45:00      0.216     0.000     0.134    96.134
  
  
  <<< Node Out1 >>>
  ----------------------------------------------------------------
                           Inflow  Flooding     Depth      Head
  Date        Time            CFS       CFS      feet      feet
  ----------------------------------------------------------------
   02/06/2018 00:15:00      1.658     0.000     0.547    87.547
   02/06/2018 00:30:00      1.591     0.000     0.535    87.535
   02/06/2018 00:45:00      1.528     0.000     0.524    87.524
   02/06/2018 01:00:00      1.467     0.000     0.513    87.513
   02/06/2018 01:15:00      1.409     0.000     0.502    87.502
   02/06/2018 01:30:00      1.354     0.000     0.492    87.492
   02/06/2018 01:45:00      1.302     0.000     0.482    87.482
   02/06/2018 02:00:00      1.253     0.000     0.472    87.472
   02/06/2018 02:15:00      1.206     0.000     0.463    87.463
   02/06/2018 02:30:00      1.161     0.000     0.454    87.454
   02/06/2018 02:45:00      1.118     0.000     0.445    87.445
   02/06/2018 03:00:00      1.077     0.000     0.436    87.436
   02/06/2018 03:15:00      1.038     0.000     0.428    87.428
   02/06/2018 03:30:00      1.002     0.000     0.420    87.420
   02/06/2018 03:45:00      0.967     0.000     0.412    87.412
   02/06/2018 04:00:00      0.933     0.000     0.405    87.405
   02/06/2018 04:15:00      0.902     0.000     0.398    87.398
   02/06/2018 04:30:00      0.883     0.000     0.393    87.393
   02/06/2018 04:45:00      0.902     0.000     0.398    87.398
   02/06/2018 05:00:00      0.975     0.000     0.414    87.414
   02/06/2018 05:15:00      1.151     0.000     0.452    87.452
   02/06/2018 05:30:00      1.558     0.000     0.529    87.529
   02/06/2018 05:45:00      2.307     0.000     0.650    87.650
   02/06/2018 06:00:00      2.833     0.000     0.721    87.721
   02/06/2018 06:15:00      3.006     0.000     0.743    87.743
   02/06/2018 06:30:00      2.978     0.000     0.739    87.739
   02/06/2018 06:45:00      3.060     0.000     0.749    87.749
   02/06/2018 07:00:00      3.139     0.000     0.759    87.759
   02/06/2018 07:15:00      3.213     0.000     0.767    87.767
   02/06/2018 07:30:00      3.281     0.000     0.775    87.775
   02/06/2018 07:45:00      3.343     0.000     0.782    87.782
   02/06/2018 08:00:00      3.402     0.000     0.788    87.788
   02/06/2018 08:15:00      3.456     0.000     0.794    87.794
   02/06/2018 08:30:00      3.471     0.000     0.796    87.796
   02/06/2018 08:45:00      3.471     0.000     0.796    87.796
   02/06/2018 09:00:00      3.471     0.000     0.796    87.796
   02/06/2018 09:15:00      3.471     0.000     0.796    87.796
   02/06/2018 09:30:00      3.471     0.000     0.796    87.796
   02/06/2018 09:45:00      3.471     0.000     0.796    87.796
   02/06/2018 10:00:00      3.471     0.000     0.796    87.796
   02/06/2018 10:15:00      3.471     0.000     0.796    87.796
   02/06/2018 10:30:00      3.471     0.000     0.796    87.796
   02/06/2018 10:45:00      3.471     0.000     0.796    87.796
   02/06/2018 11:00:00      3.471     0.000     0.796    87.796
   02/06/2018 11:15:00      3.471     0.000     0.796    87.796
   02/06/2018 11:30:00      3.471     0.000     0.796    87.796
   02/06/2018 11:45:00      3.471     0.000     0.796    87.796
   02/06/2018 12:00:00      3.471     0.000     0.796    87.796
   02/06/2018 12:15:00      3.471     0.000     0.796    87.796
   02/06/2018 12:30:00      3.471     0.000     0.796    87.796
   02/06/2018 12:45:00      3.471     0.000     0.796    87.796
   02/06/2018 13:00:00      3.471     0.000     0.796    87.796
   02/06/2018 13:15:00      3.471     0.000     0.796    87.796
   02/06/2018 13:30:00      3.471     0.000     0.796    87.796
   02/06/2018 13:45:00      3.471     0.000     0.796    87.796
   02/06/2018 14:00:00      3.471     0.000     0.796    87.796
   02/06/2018 14:15:00      3.471     0.000     0.796    87.796
   02/06/2018 14:30:00      3.471     0.000     0.796    87.796
   02/06/2018 14:45:00      3.471     0.000     0.796    87.796
   02/06/2018 15:00:00      3.471     0.000     0.796    87.796
   02/06/2018 15:15:00      3.471     0.000     0.796    87.796
   02/06/2018 15:30:00      3.471     0.000     0.796    87.796
   02/06/2018 15:45:00      3.471     0.000     0.796    87.796
  
  
  <<< Node St1 >>>
  ----------------------------------------------------------------
                           Inflow  Flooding     Depth      Head
  Date        Time            CFS       CFS      feet      feet
  ----------------------------------------------------------------
   02/06/2018 00:15:00      0.000     0.000     0.731    90.731
   02/06/2018 00:30:00      0.000     0.000     0.713    90.713
   02/06/2018 00:45:00      0.000     0.000     0.695    90.695
   02/06/2018 01:00:00      0.000     0.000     0.678    90.678
   02/06/2018 01:15:00      0.000     0.000     0.662    90.662
   02/06/2018 01:30:00      0.000     0.000     0.647    90.647
   02/06/2018 01:45:00      0.000     0.000     0.632    90.632
   02/06/2018 02:00:00      0.000     0.000     0.618    90.618
   02/06/2018 02:15:00      0.000     0.000     0.604    90.604
   02/06/2018 02:30:00      0.000     0.000     0.591    90.591
   02/06/2018 02:45:00      0.000     0.000     0.578    90.578
   02/06/2018 03:00:00      0.000     0.000     0.566    90.566
   02/06/2018 03:15:00      0.000     0.000     0.554    90.554
   02/06/2018 03:30:00      0.000     0.000     0.543    90.543
   02/06/2018 03:45:00      0.000     0.000     0.532    90.532
   02/06/2018 04:00:00      0.000     0.000     0.521    90.521
   02/06/2018 04:15:00      0.113     0.000     0.512    90.512
   02/06/2018 04:30:00      0.937     0.000     0.512    90.512
   02/06/2018 04:45:00      2.207     0.000     0.535    90.535
   02/06/2018 05:00:00      3.538     0.000     0.585    90.585
   02/06/2018 05:15:00      6.868     0.000     0.680    90.680
   02/06/2018 05:30:00     10.024     0.000     0.841    90.841
   02/06/2018 05:45:00     12.474     0.000     1.048    91.048
   02/06/2018 06:00:00     14.228     0.000     1.286    91.286
   02/06/2018 06:15:00     14.274     0.000     1.535    91.535
   02/06/2018 06:30:00     14.219     0.000     1.779    91.779
   02/06/2018 06:45:00     14.184     0.000     2.019    92.019
   02/06/2018 07:00:00     14.161     0.000     2.256    92.256
   02/06/2018 07:15:00     12.475     0.000     2.472    92.472
   02/06/2018 07:30:00     11.281     0.000     2.652    92.652
   02/06/2018 07:45:00     10.501     0.000     2.810    92.810
   02/06/2018 08:00:00      9.979     0.000     2.953    92.953
   02/06/2018 08:15:00      8.405     0.000     3.074    93.074
   02/06/2018 08:30:00      7.270     0.000     3.165    93.165
   02/06/2018 08:45:00      6.493     0.000     3.235    93.235
   02/06/2018 09:00:00      5.946     0.000     3.292    93.292
   02/06/2018 09:15:00      4.565     0.000     3.328    93.328
   02/06/2018 09:30:00      3.536     0.000     3.338    93.338
   02/06/2018 09:45:00      2.805     0.000     3.332    93.332
   02/06/2018 10:00:00      2.269     0.000     3.316    93.316
   02/06/2018 10:15:00      1.866     0.000     3.294    93.294
   02/06/2018 10:30:00      1.557     0.000     3.269    93.269
   02/06/2018 10:45:00      1.315     0.000     3.241    93.241
   02/06/2018 11:00:00      1.123     0.000     3.223    93.223
   02/06/2018 11:15:00      0.968     0.000     3.207    93.207
   02/06/2018 11:30:00      0.840     0.000     3.189    93.189
   02/06/2018 11:45:00      0.736     0.000     3.169    93.169
   02/06/2018 12:00:00      0.648     0.000     3.152    93.152
   02/06/2018 12:15:00      0.575     0.000     3.138    93.138
   02/06/2018 12:30:00      0.513     0.000     3.121    93.121
   02/06/2018 12:45:00      0.459     0.000     3.100    93.100
   02/06/2018 13:00:00      0.414     0.000     3.078    93.078
   02/06/2018 13:15:00      0.374     0.000     3.056    93.056
   02/06/2018 13:30:00      0.339     0.000     3.033    93.033
   02/06/2018 13:45:00      0.309     0.000     3.007    93.007
   02/06/2018 14:00:00      0.283     0.000     2.979    92.979
   02/06/2018 14:15:00      0.259     0.000     2.948    92.948
   02/06/2018 14:30:00      0.238     0.000     2.914    92.914
   02/06/2018 14:45:00      0.220     0.000     2.884    92.884
   02/06/2018 15:00:00      0.203     0.000     2.853    92.853
   02/06/2018 15:15:00      0.188     0.000     2.823    92.823
   02/06/2018 15:30:00      0.175     0.000     2.794    92.794
   02/06/2018 15:45:00      0.163     0.000     2.763    92.763
  
  
  <<< Node St2 >>>
  ----------------------------------------------------------------
                           Inflow  Flooding     Depth      Head
  Date        Time            CFS       CFS      feet      feet
  ----------------------------------------------------------------
   02/06/2018 00:15:00      0.000     0.000     0.731    90.731
   02/06/2018 00:30:00      0.000     0.000     0.713    90.713
   02/06/2018 00:45:00      0.000     0.000     0.695    90.695
   02/06/2018 01:00:00      0.000     0.000     0.679    90.679
   02/06/2018 01:15:00      0.000     0.000     0.663    90.663
   02/06/2018 01:30:00      0.000     0.000     0.647    90.647
   02/06/2018 01:45:00      0.000     0.000     0.632    90.632
   02/06/2018 02:00:00      0.000     0.000     0.618    90.618
   02/06/2018 02:15:00      0.000     0.000     0.605    90.605
   02/06/2018 02:30:00      0.000     0.000     0.591    90.591
   02/06/2018 02:45:00      0.000     0.000     0.579    90.579
   02/06/2018 03:00:00      0.000     0.000     0.566    90.566
   02/06/2018 03:15:00      0.000     0.000     0.555    90.555
   02/06/2018 03:30:00      0.000     0.000     0.543    90.543
   02/06/2018 03:45:00      0.000     0.000     0.532    90.532
   02/06/2018 04:00:00      0.000     0.000     0.522    90.522
   02/06/2018 04:15:00      0.000     0.000     0.511    90.511
   02/06/2018 04:30:00      0.000     0.000     0.502    90.502
   02/06/2018 04:45:00      0.000     0.000     0.493    90.493
   02/06/2018 05:00:00      0.000     0.000     0.486    90.486
   02/06/2018 05:15:00      0.166     0.000     0.483    90.483
   02/06/2018 05:30:00      1.040     0.000     0.495    90.495
   02/06/2018 05:45:00      2.504     0.000     0.534    90.534
   02/06/2018 06:00:00      3.848     0.000     0.605    90.605
   02/06/2018 06:15:00      7.067     0.000     0.729    90.729
   02/06/2018 06:30:00      7.371     0.000     0.891    90.891
   02/06/2018 06:45:00      7.436     0.000     1.058    91.058
   02/06/2018 07:00:00      7.418     0.000     1.225    91.225
   02/06/2018 07:15:00      7.371     0.000     1.391    91.391
   02/06/2018 07:30:00      7.278     0.000     1.556    91.556
   02/06/2018 07:45:00      7.159     0.000     1.718    91.718
   02/06/2018 08:00:00      7.030     0.000     1.877    91.877
   02/06/2018 08:15:00      6.880     0.000     2.033    92.033
   02/06/2018 08:30:00      6.690     0.000     2.186    92.186
   02/06/2018 08:45:00      6.501     0.000     2.334    92.334
   02/06/2018 09:00:00      6.355     0.000     2.478    92.478
   02/06/2018 09:15:00      6.292     0.000     2.620    92.620
   02/06/2018 09:30:00      6.233     0.000     2.757    92.757
   02/06/2018 09:45:00      6.176     0.000     2.889    92.889
   02/06/2018 10:00:00      5.914     0.000     3.013    93.013
   02/06/2018 10:15:00      4.614     0.000     3.110    93.110
   02/06/2018 10:30:00      3.493     0.000     3.176    93.176
   02/06/2018 10:45:00      2.762     0.000     3.219    93.219
   02/06/2018 11:00:00      2.237     0.000     3.238    93.238
   02/06/2018 11:15:00      1.840     0.000     3.242    93.242
   02/06/2018 11:30:00      1.536     0.000     3.238    93.238
   02/06/2018 11:45:00      1.298     0.000     3.227    93.227
   02/06/2018 12:00:00      1.108     0.000     3.204    93.204
   02/06/2018 12:15:00      0.955     0.000     3.167    93.167
   02/06/2018 12:30:00      0.830     0.000     3.133    93.133
   02/06/2018 12:45:00      0.727     0.000     3.117    93.117
   02/06/2018 13:00:00      0.641     0.000     3.098    93.098
   02/06/2018 13:15:00      0.568     0.000     3.078    93.078
   02/06/2018 13:30:00      0.507     0.000     3.057    93.057
   02/06/2018 13:45:00      0.454     0.000     3.032    93.032
   02/06/2018 14:00:00      0.409     0.000     3.000    93.000
   02/06/2018 14:15:00      0.370     0.000     2.967    92.967
   02/06/2018 14:30:00      0.336     0.000     2.932    92.932
   02/06/2018 14:45:00      0.306     0.000     2.900    92.900
   02/06/2018 15:00:00      0.280     0.000     2.867    92.867
   02/06/2018 15:15:00      0.256     0.000     2.834    92.834
   02/06/2018 15:30:00      0.236     0.000     2.802    92.802
   02/06/2018 15:45:00      0.217     0.000     2.766    92.766
  
  
  ************
  Link Results
  ************
  
  <<< Link C1 >>>
  ----------------------------------------------------------------
                             Flow  Velocity     Depth  Capacity/
  Date        Time            CFS    ft/sec      feet   Setting 
  ----------------------------------------------------------------
   02/06/2018 00:15:00      0.000     0.000     0.000     0.000
   02/06/2018 00:30:00      0.000     0.000     0.000     0.000
   02/06/2018 00:45:00      0.000     0.000     0.000     0.000
   02/06/2018 01:00:00      0.000     0.000     0.000     0.000
   02/06/2018 01:15:00      0.000     0.000     0.000     0.000
   02/06/2018 01:30:00      0.000     0.000     0.000     0.000
   02/06/2018 01:45:00      0.000     0.000     0.000     0.000
   02/06/2018 02:00:00      0.000     0.000     0.000     0.000
   02/06/2018 02:15:00      0.000     0.000     0.000     0.000
   02/06/2018 02:30:00      0.000     0.000     0.000     0.000
   02/06/2018 02:45:00      0.000     0.000     0.000     0.000
   02/06/2018 03:00:00      0.000     0.000     0.000     0.000
   02/06/2018 03:15:00      0.000     0.000     0.000     0.000
   02/06/2018 03:30:00      0.000     0.000     0.000     0.000
   02/06/2018 03:45:00      0.000     0.000     0.000     0.000
   02/06/2018 04:00:00      0.000     0.000     0.000     0.000
   02/06/2018 04:15:00      0.113     1.483     0.120     0.024
   02/06/2018 04:30:00      0.937     2.647     0.340     0.113
   02/06/2018 04:45:00      2.207     3.385     0.521     0.207
   02/06/2018 05:00:00      3.538     3.875     0.665     0.291
   02/06/2018 05:15:00      6.868     4.680     0.948     0.467
   02/06/2018 05:30:00     10.024     5.242     1.172     0.609
   02/06/2018 05:45:00     12.474     5.603     1.334     0.709
   02/06/2018 06:00:00     14.228     5.826     1.452     0.777
   02/06/2018 06:15:00     14.274     5.839     1.453     0.778
   02/06/2018 06:30:00     14.219     5.833     1.449     0.776
   02/06/2018 06:45:00     14.184     5.829     1.447     0.775
   02/06/2018 07:00:00     14.161     5.826     1.445     0.774
   02/06/2018 07:15:00     12.475     5.624     1.330     0.706
   02/06/2018 07:30:00     11.281     5.454     1.252     0.658
   02/06/2018 07:45:00     10.501     5.338     1.200     0.626
   02/06/2018 08:00:00      9.979     5.257     1.165     0.604
   02/06/2018 08:15:00      8.405     5.002     1.055     0.535
   02/06/2018 08:30:00      7.270     4.791     0.973     0.483
   02/06/2018 08:45:00      6.493     4.636     0.915     0.446
   02/06/2018 09:00:00      5.946     4.518     0.872     0.419
   02/06/2018 09:15:00      4.565     4.197     0.756     0.346
   02/06/2018 09:30:00      3.536     3.899     0.661     0.289
   02/06/2018 09:45:00      2.805     3.650     0.587     0.245
   02/06/2018 10:00:00      2.269     3.438     0.526     0.210
   02/06/2018 10:15:00      1.866     3.249     0.477     0.183
   02/06/2018 10:30:00      1.557     3.090     0.435     0.160
   02/06/2018 10:45:00      1.315     2.941     0.400     0.142
   02/06/2018 11:00:00      1.123     2.819     0.369     0.127
   02/06/2018 11:15:00      0.968     2.699     0.343     0.114
   02/06/2018 11:30:00      0.840     2.590     0.320     0.103
   02/06/2018 11:45:00      0.736     2.501     0.299     0.094
   02/06/2018 12:00:00      0.648     2.418     0.281     0.085
   02/06/2018 12:15:00      0.575     2.330     0.265     0.079
   02/06/2018 12:30:00      0.513     2.248     0.251     0.073
   02/06/2018 12:45:00      0.459     2.183     0.237     0.067
   02/06/2018 13:00:00      0.414     2.124     0.225     0.062
   02/06/2018 13:15:00      0.374     2.069     0.214     0.058
   02/06/2018 13:30:00      0.339     2.016     0.204     0.054
   02/06/2018 13:45:00      0.309     1.961     0.195     0.050
   02/06/2018 14:00:00      0.283     1.906     0.187     0.047
   02/06/2018 14:15:00      0.259     1.854     0.179     0.044
   02/06/2018 14:30:00      0.238     1.805     0.173     0.042
   02/06/2018 14:45:00      0.220     1.758     0.167     0.040
   02/06/2018 15:00:00      0.203     1.733     0.160     0.037
   02/06/2018 15:15:00      0.188     1.700     0.153     0.035
   02/06/2018 15:30:00      0.175     1.670     0.147     0.033
   02/06/2018 15:45:00      0.163     1.642     0.142     0.032
  
  
  <<< Link C2 >>>
  ----------------------------------------------------------------
                             Flow  Velocity     Depth  Capacity/
  Date        Time            CFS    ft/sec      feet   Setting 
  ----------------------------------------------------------------
   02/06/2018 00:15:00      1.650     3.570     0.570     0.589
   02/06/2018 00:30:00      1.584     3.538     0.555     0.570
   02/06/2018 00:45:00      1.520     3.506     0.541     0.552
   02/06/2018 01:00:00      1.460     3.475     0.527     0.535
   02/06/2018 01:15:00      1.402     3.443     0.515     0.519
   02/06/2018 01:30:00      1.348     3.411     0.502     0.503
   02/06/2018 01:45:00      1.296     3.379     0.491     0.488
   02/06/2018 02:00:00      1.247     3.348     0.480     0.474
   02/06/2018 02:15:00      1.201     3.317     0.469     0.461
   02/06/2018 02:30:00      1.156     3.285     0.459     0.448
   02/06/2018 02:45:00      1.113     3.254     0.449     0.435
   02/06/2018 03:00:00      1.072     3.224     0.440     0.424
   02/06/2018 03:15:00      1.034     3.192     0.431     0.412
   02/06/2018 03:30:00      0.997     3.161     0.422     0.402
   02/06/2018 03:45:00      0.962     3.132     0.414     0.391
   02/06/2018 04:00:00      0.929     3.104     0.406     0.381
   02/06/2018 04:15:00      0.898     3.077     0.398     0.372
   02/06/2018 04:30:00      0.883     3.066     0.394     0.367
   02/06/2018 04:45:00      0.908     3.096     0.400     0.373
   02/06/2018 05:00:00      0.989     3.172     0.418     0.397
   02/06/2018 05:15:00      1.185     3.343     0.462     0.451
   02/06/2018 05:30:00      1.625     3.618     0.556     0.572
   02/06/2018 05:45:00      2.406     3.865     0.739     0.793
   02/06/2018 06:00:00      2.835     3.946     0.860     0.915
   02/06/2018 06:15:00      3.007     3.940     0.934     0.972
   02/06/2018 06:30:00      2.978     3.792     1.000     1.000
   02/06/2018 06:45:00      3.060     3.897     1.000     1.000
   02/06/2018 07:00:00      3.140     3.998     1.000     1.000
   02/06/2018 07:15:00      3.214     4.092     1.000     1.000
   02/06/2018 07:30:00      3.281     4.178     1.000     1.000
   02/06/2018 07:45:00      3.344     4.257     1.000     1.000
   02/06/2018 08:00:00      3.403     4.332     1.000     1.000
   02/06/2018 08:15:00      3.456     4.401     1.000     1.000
   02/06/2018 08:30:00      3.530     4.495     1.000     1.000
   02/06/2018 08:45:00      3.603     4.587     1.000     1.000
   02/06/2018 09:00:00      3.656     4.655     1.000     1.000
   02/06/2018 09:15:00      3.693     4.701     1.000     1.000
   02/06/2018 09:30:00      3.737     4.759     1.000     1.000
   02/06/2018 09:45:00      3.784     4.818     1.000     1.000
   02/06/2018 10:00:00      3.829     4.875     1.000     1.000
   02/06/2018 10:15:00      3.864     4.920     1.000     1.000
   02/06/2018 10:30:00      3.886     4.948     1.000     1.000
   02/06/2018 10:45:00      3.898     4.962     1.000     1.000
   02/06/2018 11:00:00      3.889     4.951     1.000     1.000
   02/06/2018 11:15:00      3.885     4.947     1.000     1.000
   02/06/2018 11:30:00      3.878     4.938     1.000     1.000
   02/06/2018 11:45:00      3.868     4.925     1.000     1.000
   02/06/2018 12:00:00      3.862     4.917     1.000     1.000
   02/06/2018 12:15:00      3.848     4.900     1.000     1.000
   02/06/2018 12:30:00      3.857     4.911     1.000     1.000
   02/06/2018 12:45:00      3.845     4.896     1.000     1.000
   02/06/2018 13:00:00      3.832     4.879     1.000     1.000
   02/06/2018 13:15:00      3.819     4.862     1.000     1.000
   02/06/2018 13:30:00      3.804     4.844     1.000     1.000
   02/06/2018 13:45:00      3.764     4.793     1.000     1.000
   02/06/2018 14:00:00      3.750     4.775     1.000     1.000
   02/06/2018 14:15:00      3.708     4.721     1.000     1.000
   02/06/2018 14:30:00      3.688     4.696     1.000     1.000
   02/06/2018 14:45:00      3.667     4.669     1.000     1.000
   02/06/2018 15:00:00      3.646     4.642     1.000     1.000
   02/06/2018 15:15:00      3.641     4.636     1.000     1.000
   02/06/2018 15:30:00      3.605     4.590     1.000     1.000
   02/06/2018 15:45:00      3.576     4.553     1.000     1.000
  
  
  <<< Link C3 >>>
  ----------------------------------------------------------------
                             Flow  Velocity     Depth  Capacity/
  Date        Time            CFS    ft/sec      feet   Setting 
  ----------------------------------------------------------------
   02/06/2018 00:15:00      1.658     3.425     0.592     0.617
   02/06/2018 00:30:00      1.591     3.388     0.577     0.598
   02/06/2018 00:45:00      1.528     3.350     0.563     0.581
   02/06/2018 01:00:00      1.467     3.314     0.550     0.564
   02/06/2018 01:15:00      1.409     3.279     0.537     0.547
   02/06/2018 01:30:00      1.354     3.243     0.525     0.532
   02/06/2018 01:45:00      1.302     3.207     0.513     0.517
   02/06/2018 02:00:00      1.253     3.174     0.502     0.503
   02/06/2018 02:15:00      1.206     3.141     0.491     0.489
   02/06/2018 02:30:00      1.161     3.108     0.481     0.476
   02/06/2018 02:45:00      1.118     3.075     0.471     0.463
   02/06/2018 03:00:00      1.077     3.043     0.461     0.451
   02/06/2018 03:15:00      1.038     3.013     0.452     0.439
   02/06/2018 03:30:00      1.002     2.983     0.443     0.427
   02/06/2018 03:45:00      0.967     2.953     0.434     0.417
   02/06/2018 04:00:00      0.933     2.922     0.426     0.407
   02/06/2018 04:15:00      0.902     2.894     0.418     0.397
   02/06/2018 04:30:00      0.883     2.877     0.414     0.391
   02/06/2018 04:45:00      0.902     2.892     0.419     0.397
   02/06/2018 05:00:00      0.975     2.958     0.437     0.420
   02/06/2018 05:15:00      1.151     3.093     0.479     0.474
   02/06/2018 05:30:00      1.558     3.356     0.572     0.591
   02/06/2018 05:45:00      2.307     3.677     0.745     0.799
   02/06/2018 06:00:00      2.833     3.939     0.861     0.916
   02/06/2018 06:15:00      3.006     4.139     0.871     0.925
   02/06/2018 06:30:00      2.978     4.107     0.870     0.923
   02/06/2018 06:45:00      3.060     4.201     0.875     0.927
   02/06/2018 07:00:00      3.139     4.291     0.880     0.932
   02/06/2018 07:15:00      3.213     4.376     0.884     0.935
   02/06/2018 07:30:00      3.281     4.454     0.887     0.938
   02/06/2018 07:45:00      3.343     4.525     0.891     0.941
   02/06/2018 08:00:00      3.402     4.592     0.894     0.943
   02/06/2018 08:15:00      3.456     4.653     0.897     0.946
   02/06/2018 08:30:00      3.471     4.670     0.898     0.946
   02/06/2018 08:45:00      3.471     4.670     0.898     0.946
   02/06/2018 09:00:00      3.471     4.670     0.898     0.946
   02/06/2018 09:15:00      3.471     4.670     0.898     0.946
   02/06/2018 09:30:00      3.471     4.670     0.898     0.946
   02/06/2018 09:45:00      3.471     4.670     0.898     0.946
   02/06/2018 10:00:00      3.471     4.670     0.898     0.946
   02/06/2018 10:15:00      3.471     4.670     0.898     0.946
   02/06/2018 10:30:00      3.471     4.670     0.898     0.946
   02/06/2018 10:45:00      3.471     4.670     0.898     0.946
   02/06/2018 11:00:00      3.471     4.670     0.898     0.946
   02/06/2018 11:15:00      3.471     4.670     0.898     0.946
   02/06/2018 11:30:00      3.471     4.670     0.898     0.946
   02/06/2018 11:45:00      3.471     4.670     0.898     0.946
   02/06/2018 12:00:00      3.471     4.670     0.898     0.946
   02/06/2018 12:15:00      3.471     4.670     0.898     0.946
   02/06/2018 12:30:00      3.471     4.670     0.898     0.946
   02/06/2018 12:45:00      3.471     4.670     0.898     0.946
   02/06/2018 13:00:00      3.471     4.670     0.898     0.946
   02/06/2018 13:15:00      3.471     4.670     0.898     0.946
   02/06/2018 13:30:00      3.471     4.670     0.898     0.946
   02/06/2018 13:45:00      3.471     4.670     0.898     0.946
   02/06/2018 14:00:00      3.471     4.670     0.898     0.946
   02/06/2018 14:15:00      3.471     4.670     0.898     0.946
   02/06/2018 14:30:00      3.471     4.670     0.898     0.946
   02/06/2018 14:45:00      3.471     4.670     0.898     0.946
   02/06/2018 15:00:00      3.471     4.670     0.898     0.946
   02/06/2018 15:15:00      3.471     4.670     0.898     0.946
   02/06/2018 15:30:00      3.471     4.670     0.898     0.946
   02/06/2018 15:45:00      3.471     4.670     0.898     0.946
  
  
  <<< Link C4 >>>
  ----------------------------------------------------------------
                             Flow  Velocity     Depth  Capacity/
  Date        Time            CFS    ft/sec      feet   Setting 
  ----------------------------------------------------------------
   02/06/2018 00:15:00      0.000     0.000     0.365     0.331
   02/06/2018 00:30:00      0.000     0.000     0.356     0.320
   02/06/2018 00:45:00      0.000     0.000     0.348     0.309
   02/06/2018 01:00:00      0.000     0.000     0.339     0.299
   02/06/2018 01:15:00      0.000     0.000     0.331     0.290
   02/06/2018 01:30:00      0.000     0.000     0.324     0.280
   02/06/2018 01:45:00      0.000     0.000     0.316     0.272
   02/06/2018 02:00:00      0.000     0.000     0.309     0.263
   02/06/2018 02:15:00      0.000     0.000     0.302     0.255
   02/06/2018 02:30:00      0.000     0.000     0.296     0.247
   02/06/2018 02:45:00      0.000     0.000     0.289     0.240
   02/06/2018 03:00:00      0.000     0.000     0.283     0.233
   02/06/2018 03:15:00      0.000     0.000     0.277     0.226
   02/06/2018 03:30:00      0.000     0.000     0.272     0.220
   02/06/2018 03:45:00      0.000     0.000     0.266     0.214
   02/06/2018 04:00:00      0.000     0.000     0.261     0.208
   02/06/2018 04:15:00      0.000     0.000     0.256     0.202
   02/06/2018 04:30:00      0.000     0.000     0.251     0.197
   02/06/2018 04:45:00      0.000     0.000     0.247     0.192
   02/06/2018 05:00:00      0.000     0.000     0.243     0.188
   02/06/2018 05:15:00      0.166     0.834     0.301     0.253
   02/06/2018 05:30:00      1.040     3.629     0.393     0.365
   02/06/2018 05:45:00      2.303     6.033     0.489     0.486
   02/06/2018 06:00:00      3.619     7.461     0.593     0.618
   02/06/2018 06:15:00      6.757     9.365     0.864     0.919
   02/06/2018 06:30:00      6.913     8.995     0.945     0.979
   02/06/2018 06:45:00      6.926     8.818     1.000     1.000
   02/06/2018 07:00:00      6.861     8.735     1.000     1.000
   02/06/2018 07:15:00      6.795     8.652     1.000     1.000
   02/06/2018 07:30:00      6.730     8.569     1.000     1.000
   02/06/2018 07:45:00      6.665     8.486     1.000     1.000
   02/06/2018 08:00:00      6.601     8.404     1.000     1.000
   02/06/2018 08:15:00      6.537     8.323     1.000     1.000
   02/06/2018 08:30:00      6.474     8.243     1.000     1.000
   02/06/2018 08:45:00      6.413     8.165     1.000     1.000
   02/06/2018 09:00:00      6.352     8.088     1.000     1.000
   02/06/2018 09:15:00      6.292     8.011     1.000     1.000
   02/06/2018 09:30:00      6.233     7.936     1.000     1.000
   02/06/2018 09:45:00      6.176     7.864     1.000     1.000
   02/06/2018 10:00:00      5.914     7.529     1.000     1.000
   02/06/2018 10:15:00      4.614     5.888     0.991     0.998
   02/06/2018 10:30:00      3.493     5.152     0.806     0.863
   02/06/2018 10:45:00      2.762     4.397     0.746     0.800
   02/06/2018 11:00:00      2.237     3.705     0.718     0.768
   02/06/2018 11:15:00      1.840     3.155     0.696     0.743
   02/06/2018 11:30:00      1.536     2.711     0.678     0.721
   02/06/2018 11:45:00      1.298     2.350     0.663     0.703
   02/06/2018 12:00:00      1.108     2.051     0.650     0.688
   02/06/2018 12:15:00      0.955     1.803     0.639     0.674
   02/06/2018 12:30:00      0.830     1.595     0.629     0.663
   02/06/2018 12:45:00      0.727     1.419     0.621     0.652
   02/06/2018 13:00:00      0.641     1.269     0.613     0.643
   02/06/2018 13:15:00      0.568     1.140     0.607     0.635
   02/06/2018 13:30:00      0.507     1.028     0.601     0.628
   02/06/2018 13:45:00      0.454     0.932     0.596     0.621
   02/06/2018 14:00:00      0.409     0.847     0.591     0.615
   02/06/2018 14:15:00      0.370     0.773     0.586     0.609
   02/06/2018 14:30:00      0.336     0.707     0.582     0.604
   02/06/2018 14:45:00      0.306     0.649     0.579     0.600
   02/06/2018 15:00:00      0.280     0.598     0.575     0.596
   02/06/2018 15:15:00      0.256     0.552     0.572     0.592
   02/06/2018 15:30:00      0.236     0.510     0.570     0.588
   02/06/2018 15:45:00      0.217     0.473     0.567     0.585
  
  
  <<< Link R1 >>>
  ----------------------------------------------------------------
                             Flow  Velocity     Depth  Capacity/
  Date        Time            CFS    ft/sec      feet   Setting 
  ----------------------------------------------------------------
   02/06/2018 00:15:00      0.824     0.000     1.000     1.000
   02/06/2018 00:30:00      0.790     0.000     1.000     1.000
   02/06/2018 00:45:00      0.758     0.000     1.000     1.000
   02/06/2018 01:00:00      0.728     0.000     1.000     1.000
   02/06/2018 01:15:00      0.699     0.000     1.000     1.000
   02/06/2018 01:30:00      0.672     0.000     1.000     1.000
   02/06/2018 01:45:00      0.646     0.000     1.000     1.000
   02/06/2018 02:00:00      0.621     0.000     1.000     1.000
   02/06/2018 02:15:00      0.598     0.000     1.000     1.000
   02/06/2018 02:30:00      0.576     0.000     1.000     1.000
   02/06/2018 02:45:00      0.554     0.000     1.000     1.000
   02/06/2018 03:00:00      0.534     0.000     1.000     1.000
   02/06/2018 03:15:00      0.515     0.000     1.000     1.000
   02/06/2018 03:30:00      0.497     0.000     1.000     1.000
   02/06/2018 03:45:00      0.479     0.000     1.000     1.000
   02/06/2018 04:00:00      0.463     0.000     1.000     1.000
   02/06/2018 04:15:00      0.449     0.000     1.000     1.000
   02/06/2018 04:30:00      0.467     0.000     1.000     1.000
   02/06/2018 04:45:00      0.562     0.000     1.000     1.000
   02/06/2018 05:00:00      0.750     0.000     1.000     1.000
   02/06/2018 05:15:00      1.100     0.000     1.000     1.000
   02/06/2018 05:30:00      1.650     0.000     1.000     1.000
   02/06/2018 05:45:00      2.623     0.000     1.000     1.000
   02/06/2018 06:00:00      3.081     0.000     1.000     1.000
   02/06/2018 06:15:00      3.343     0.000     1.000     1.000
   02/06/2018 06:30:00      3.448     0.000     1.000     1.000
   02/06/2018 06:45:00      3.583     0.000     1.000     1.000
   02/06/2018 07:00:00      3.710     0.000     1.000     1.000
   02/06/2018 07:15:00      3.801     0.000     1.000     1.000
   02/06/2018 07:30:00      3.839     0.000     1.000     1.000
   02/06/2018 07:45:00      3.848     0.000     1.000     1.000
   02/06/2018 08:00:00      3.841     0.000     1.000     1.000
   02/06/2018 08:15:00      3.807     0.000     1.000     1.000
   02/06/2018 08:30:00      3.752     0.000     1.000     1.000
   02/06/2018 08:45:00      3.695     0.000     1.000     1.000
   02/06/2018 09:00:00      3.661     0.000     1.000     1.000
   02/06/2018 09:15:00      3.630     0.000     1.000     1.000
   02/06/2018 09:30:00      3.508     0.000     1.000     1.000
   02/06/2018 09:45:00      3.333     0.000     1.000     1.000
   02/06/2018 10:00:00      3.126     0.000     1.000     1.000
   02/06/2018 10:15:00      2.927     0.000     1.000     1.000
   02/06/2018 10:30:00      2.758     0.000     1.000     1.000
   02/06/2018 10:45:00      2.618     0.000     1.000     1.000
   02/06/2018 11:00:00      1.905     0.000     1.000     1.000
   02/06/2018 11:15:00      1.865     0.000     1.000     1.000
   02/06/2018 11:30:00      1.836     0.000     1.000     1.000
   02/06/2018 11:45:00      1.814     0.000     1.000     1.000
   02/06/2018 12:00:00      1.196     0.000     1.000     1.000
   02/06/2018 12:15:00      1.235     0.000     1.000     1.000
   02/06/2018 12:30:00      1.322     0.000     1.000     1.000
   02/06/2018 12:45:00      1.303     0.000     1.000     1.000
   02/06/2018 13:00:00      1.287     0.000     1.000     1.000
   02/06/2018 13:15:00      1.273     0.000     1.000     1.000
   02/06/2018 13:30:00      1.261     0.000     1.000     1.000
   02/06/2018 13:45:00      1.572     0.000     1.000     1.000
   02/06/2018 14:00:00      1.479     0.000     1.000     1.000
   02/06/2018 14:15:00      1.945     0.000     1.000     1.000
   02/06/2018 14:30:00      1.932     0.000     1.000     1.000
   02/06/2018 14:45:00      1.928     0.000     1.000     1.000
   02/06/2018 15:00:00      1.923     0.000     1.000     1.000
   02/06/2018 15:15:00      1.383     0.000     1.000     1.000
   02/06/2018 15:30:00      1.523     0.000     1.000     1.000
   02/06/2018 15:45:00      1.847     0.000     1.000     1.000
  
  
  <<< Link R2 >>>
  ----------------------------------------------------------------
                             Flow  Velocity     Depth  Capacity/
  Date        Time            CFS    ft/sec      feet   Setting 
  ----------------------------------------------------------------
   02/06/2018 00:15:00      0.824     0.000     1.000     1.000
   02/06/2018 00:30:00      0.791     0.000     1.000     1.000
   02/06/2018 00:45:00      0.759     0.000     1.000     1.000
   02/06/2018 01:00:00      0.729     0.000     1.000     1.000
   02/06/2018 01:15:00      0.701     0.000     1.000     1.000
   02/06/2018 01:30:00      0.674     0.000     1.000     1.000
   02/06/2018 01:45:00      0.648     0.000     1.000     1.000
   02/06/2018 02:00:00      0.624     0.000     1.000     1.000
   02/06/2018 02:15:00      0.600     0.000     1.000     1.000
   02/06/2018 02:30:00      0.578     0.000     1.000     1.000
   02/06/2018 02:45:00      0.557     0.000     1.000     1.000
   02/06/2018 03:00:00      0.536     0.000     1.000     1.000
   02/06/2018 03:15:00      0.517     0.000     1.000     1.000
   02/06/2018 03:30:00      0.499     0.000     1.000     1.000
   02/06/2018 03:45:00      0.481     0.000     1.000     1.000
   02/06/2018 04:00:00      0.465     0.000     1.000     1.000
   02/06/2018 04:15:00      0.448     0.000     1.000     1.000
   02/06/2018 04:30:00      0.416     0.000     1.000     1.000
   02/06/2018 04:45:00      0.348     0.000     1.000     1.000
   02/06/2018 05:00:00      0.244     0.000     1.000     1.000
   02/06/2018 05:15:00      0.099     0.000     1.000     1.000
   02/06/2018 05:30:00     -0.000     0.000     1.000     1.000
   02/06/2018 05:45:00     -0.201     0.000     1.000     1.000
   02/06/2018 06:00:00     -0.229     0.000     1.000     1.000
   02/06/2018 06:15:00     -0.310     0.000     1.000     1.000
   02/06/2018 06:30:00     -0.458     0.000     1.000     1.000
   02/06/2018 06:45:00     -0.510     0.000     1.000     1.000
   02/06/2018 07:00:00     -0.557     0.000     1.000     1.000
   02/06/2018 07:15:00     -0.576     0.000     1.000     1.000
   02/06/2018 07:30:00     -0.547     0.000     1.000     1.000
   02/06/2018 07:45:00     -0.494     0.000     1.000     1.000
   02/06/2018 08:00:00     -0.429     0.000     1.000     1.000
   02/06/2018 08:15:00     -0.343     0.000     1.000     1.000
   02/06/2018 08:30:00     -0.216     0.000     1.000     1.000
   02/06/2018 08:45:00     -0.088     0.000     1.000     1.000
   02/06/2018 09:00:00     -0.003     0.000     1.000     1.000
   02/06/2018 09:15:00      0.065     0.000     1.000     1.000
   02/06/2018 09:30:00      0.234     0.000     1.000     1.000
   02/06/2018 09:45:00      0.455     0.000     1.000     1.000
   02/06/2018 10:00:00      0.708     0.000     1.000     1.000
   02/06/2018 10:15:00      0.940     0.000     1.000     1.000
   02/06/2018 10:30:00      1.130     0.000     1.000     1.000
   02/06/2018 10:45:00      1.281     0.000     1.000     1.000
   02/06/2018 11:00:00      1.962     0.000     1.000     1.000
   02/06/2018 11:15:00      2.000     0.000     1.000     1.000
   02/06/2018 11:30:00      2.025     0.000     1.000     1.000
   02/06/2018 11:45:00      2.040     0.000     1.000     1.000
   02/06/2018 12:00:00      2.664     0.000     1.000     1.000
   02/06/2018 12:15:00      2.612     0.000     1.000     1.000
   02/06/2018 12:30:00      1.379     0.000     1.000     1.000
   02/06/2018 12:45:00      1.385     0.000     1.000     1.000
   02/06/2018 13:00:00      1.387     0.000     1.000     1.000
   02/06/2018 13:15:00      1.386     0.000     1.000     1.000
   02/06/2018 13:30:00      1.381     0.000     1.000     1.000
   02/06/2018 13:45:00      1.719     0.000     1.000     1.000
   02/06/2018 14:00:00      1.741     0.000     1.000     1.000
   02/06/2018 14:15:00      2.045     0.000     1.000     1.000
   02/06/2018 14:30:00      2.252     0.000     1.000     1.000
   02/06/2018 14:45:00      2.239     0.000     1.000     1.000
   02/06/2018 15:00:00      2.226     0.000     1.000     1.000
   02/06/2018 15:15:00      1.509     0.000     1.000     1.000
   02/06/2018 15:30:00      1.704     0.000     1.000     1.000
   02/06/2018 15:45:00      2.031     0.000     1.000     1.000
  

  Analysis begun on:  Tue Jun 12 16:44:48 2018
  Analysis ended on:  Tue Jun 12 16:44:48 2018
  Total elapsed time: < 1 sec