
  EPA STORM WATER MANAGEMENT MODEL - VERSION 5.1 (Build 5.1.012)
  --------------------------------------------------------------

  
  *********************************************************
  NOTE: The summary statistics displayed in this report are
  based on results found at every computational time step,  
  not just on results from each reporting time step.
  *********************************************************
  
  ****************
  Analysis Options
  ****************
  Flow Units ............... CFS
  Process Models:
    Rainfall/Runoff ........ YES
    RDII ................... NO
    Snowmelt ............... NO
    Groundwater ............ NO
    Flow Routing ........... YES
    Ponding Allowed ........ NO
    Water Quality .......... NO
  Infiltration Method ...... MODIFIED_GREEN_AMPT
  Flow Routing Method ...... DYNWAVE
  Starting Date ............ 02/06/2018 00:00:00
  Ending Date .............. 02/06/2018 16:00:00
  Antecedent Dry Days ...... 0.0
  Report Time Step ......... 00:15:00
  Wet Time Step ............ 00:05:00
  Dry Time Step ............ 01:00:00
  Routing Time Step ........ 10.00 sec
  Variable Time Step ....... YES
  Maximum Trials ........... 8
  Number of Threads ........ 1
  Head Tolerance ........... 0.005000 ft
  
  
  **************************        Volume         Depth
  Runoff Quantity Continuity     acre-feet        inches
  **************************     ---------       -------
  Total Precipitation ......         8.896         1.525
  Evaporation Loss .........         0.000         0.000
  Infiltration Loss ........         4.448         0.762
  Surface Runoff ...........         4.265         0.731
  Final Storage ............         0.184         0.032
  Continuity Error (%) .....        -0.016
  
  
  **************************        Volume        Volume
  Flow Routing Continuity        acre-feet      10^6 gal
  **************************     ---------     ---------
  Dry Weather Inflow .......         0.000         0.000
  Wet Weather Inflow .......         4.265         1.390
  Groundwater Inflow .......         0.000         0.000
  RDII Inflow ..............         0.000         0.000
  External Inflow ..........         0.000         0.000
  External Outflow .........         1.224         0.399
  Flooding Loss ............         0.000         0.000
  Evaporation Loss .........         0.000         0.000
  Exfiltration Loss ........         0.000         0.000
  Initial Stored Volume ....         0.689         0.224
  Final Stored Volume ......         3.731         1.216
  Continuity Error (%) .....        -0.032
  
  
  ***************************
  Time-Step Critical Elements
  ***************************
  None
  
  
  ********************************
  Highest Flow Instability Indexes
  ********************************
  Link R1 (2)
  Link C2 (1)
  
  
  *************************
  Routing Time Step Summary
  *************************
  Minimum Time Step           :     9.10 sec
  Average Time Step           :    10.00 sec
  Maximum Time Step           :    10.00 sec
  Percent in Steady State     :     0.00
  Average Iterations per Step :     2.00
  Percent Not Converging      :     0.00
  
  
  ***************************
  Subcatchment Runoff Summary
  ***************************
  
  --------------------------------------------------------------------------------------------------------
                            Total      Total      Total      Total      Total       Total     Peak  Runoff
                           Precip      Runon       Evap      Infil     Runoff      Runoff   Runoff   Coeff
  Subcatchment                 in         in         in         in         in    10^6 gal      CFS
  --------------------------------------------------------------------------------------------------------
  S1                         1.52       0.00       0.00       0.76       0.73        1.39    14.35   0.479
  
  
  ******************
  Node Depth Summary
  ******************
  
  ---------------------------------------------------------------------------------
                                 Average  Maximum  Maximum  Time of Max    Reported
                                   Depth    Depth      HGL   Occurrence   Max Depth
  Node                 Type         Feet     Feet     Feet  days hr:min        Feet
  ---------------------------------------------------------------------------------
  J1                   JUNCTION     0.48     1.55    97.55     0  06:01        1.54
  J2                   JUNCTION     0.36     0.49    90.49     0  00:01        0.45
  J3                   JUNCTION     0.44     0.56    88.56     0  00:09        0.56
  Out1                 OUTFALL      0.39     0.49    87.49     0  00:09        0.49
  St1                  STORAGE      2.65     4.38    94.38     0  10:56        4.38
  
  
  *******************
  Node Inflow Summary
  *******************
  
  -------------------------------------------------------------------------------------------------
                                  Maximum  Maximum                  Lateral       Total        Flow
                                  Lateral    Total  Time of Max      Inflow      Inflow     Balance
                                   Inflow   Inflow   Occurrence      Volume      Volume       Error
  Node                 Type           CFS      CFS  days hr:min    10^6 gal    10^6 gal     Percent
  -------------------------------------------------------------------------------------------------
  J1                   JUNCTION     14.35    14.35     0  06:00        1.39        1.39       0.021
  J2                   JUNCTION      0.00     2.19     0  00:00           0         0.4       0.087
  J3                   JUNCTION      0.00     1.42     0  00:02           0         0.4       0.323
  Out1                 OUTFALL       0.00     1.36     0  00:09           0       0.399       0.000
  St1                  STORAGE       0.00    14.35     0  06:02           0        1.61       0.006
  
  
  **********************
  Node Surcharge Summary
  **********************
  
  No nodes were surcharged.
  
  
  *********************
  Node Flooding Summary
  *********************
  
  No nodes were flooded.
  
  
  **********************
  Storage Volume Summary
  **********************
  
  --------------------------------------------------------------------------------------------------
                         Average     Avg  Evap Exfil       Maximum     Max    Time of Max    Maximum
                          Volume    Pcnt  Pcnt  Pcnt        Volume    Pcnt     Occurrence    Outflow
  Storage Unit          1000 ft3    Full  Loss  Loss      1000 ft3    Full    days hr:min        CFS
  --------------------------------------------------------------------------------------------------
  St1                    106.042      53     0     0       175.076      88       0  10:56       2.19
  
  
  ***********************
  Outfall Loading Summary
  ***********************
  
  -----------------------------------------------------------
                         Flow       Avg       Max       Total
                         Freq      Flow      Flow      Volume
  Outfall Node           Pcnt       CFS       CFS    10^6 gal
  -----------------------------------------------------------
  Out1                  99.95      0.93      1.36       0.399
  -----------------------------------------------------------
  System                99.95      0.93      1.36       0.399
  
  
  ********************
  Link Flow Summary
  ********************
  
  -----------------------------------------------------------------------------
                                 Maximum  Time of Max   Maximum    Max/    Max/
                                  |Flow|   Occurrence   |Veloc|    Full    Full
  Link                 Type          CFS  days hr:min    ft/sec    Flow   Depth
  -----------------------------------------------------------------------------
  C1                   CONDUIT     14.35     0  06:02      5.85    0.98    0.73
  C2                   CONDUIT      1.42     0  00:02      5.24    0.43    0.51
  C3                   CONDUIT      1.36     0  00:09      3.25    0.59    0.53
  R1                   ORIFICE      2.19     0  00:00                          
  
  
  ***************************
  Flow Classification Summary
  ***************************
  
  -------------------------------------------------------------------------------------
                      Adjusted    ---------- Fraction of Time in Flow Class ---------- 
                       /Actual         Up    Down  Sub   Sup   Up    Down  Norm  Inlet 
  Conduit               Length    Dry  Dry   Dry   Crit  Crit  Crit  Crit  Ltd   Ctrl  
  -------------------------------------------------------------------------------------
  C1                      1.00   0.25  0.00  0.00  0.00  0.00  0.00  0.75  0.00  0.00
  C2                      1.00   0.00  0.00  0.00  0.77  0.23  0.00  0.00  0.98  0.00
  C3                      1.00   0.00  0.00  0.00  1.00  0.00  0.00  0.00  0.00  0.00
  
  
  *************************
  Conduit Surcharge Summary
  *************************
  
  No conduits were surcharged.
  
  
  ********************
  Subcatchment Results
  ********************
  
  <<< Subcatchment S1 >>>
  ---------------------------------------------------
  Date        Time        Precip.    Losses    Runoff
                            in/hr     in/hr       CFS
  ---------------------------------------------------
   02/06/2018 00:15:00      0.000     0.000    0.0000
   02/06/2018 00:30:00      0.000     0.000    0.0000
   02/06/2018 00:45:00      0.000     0.000    0.0000
   02/06/2018 01:00:00      0.000     0.000    0.0000
   02/06/2018 01:15:00      0.000     0.000    0.0000
   02/06/2018 01:30:00      0.000     0.000    0.0000
   02/06/2018 01:45:00      0.000     0.000    0.0000
   02/06/2018 02:00:00      0.000     0.000    0.0000
   02/06/2018 02:15:00      0.000     0.000    0.0000
   02/06/2018 02:30:00      0.000     0.000    0.0000
   02/06/2018 02:45:00      0.000     0.000    0.0000
   02/06/2018 03:00:00      0.000     0.000    0.0000
   02/06/2018 03:15:00      0.000     0.000    0.0000
   02/06/2018 03:30:00      0.000     0.000    0.0000
   02/06/2018 03:45:00      0.000     0.000    0.0000
   02/06/2018 04:00:00      0.250     0.125    0.0000
   02/06/2018 04:15:00      0.250     0.125    0.1912
   02/06/2018 04:30:00      0.250     0.125    1.0842
   02/06/2018 04:45:00      0.250     0.125    2.3486
   02/06/2018 05:00:00      0.500     0.250    3.6614
   02/06/2018 05:15:00      0.500     0.250    7.1546
   02/06/2018 05:30:00      0.500     0.250   10.2508
   02/06/2018 05:45:00      0.500     0.250   12.6421
   02/06/2018 06:00:00      0.400     0.200   14.3490
   02/06/2018 06:15:00      0.400     0.200   14.2683
   02/06/2018 06:30:00      0.400     0.200   14.2158
   02/06/2018 06:45:00      0.400     0.200   14.1816
   02/06/2018 07:00:00      0.250     0.125   14.1593
   02/06/2018 07:15:00      0.250     0.125   12.3546
   02/06/2018 07:30:00      0.250     0.125   11.2045
   02/06/2018 07:45:00      0.250     0.125   10.4498
   02/06/2018 08:00:00      0.125     0.062    9.9442
   02/06/2018 08:15:00      0.125     0.062    8.2903
   02/06/2018 08:30:00      0.125     0.062    7.1918
   02/06/2018 08:45:00      0.125     0.062    6.4374
   02/06/2018 09:00:00      0.000     0.000    5.9057
   02/06/2018 09:15:00      0.000     0.000    4.4510
   02/06/2018 09:30:00      0.000     0.000    3.4525
   02/06/2018 09:45:00      0.000     0.000    2.7415
   02/06/2018 10:00:00      0.000     0.000    2.2198
   02/06/2018 10:15:00      0.000     0.000    1.8271
   02/06/2018 10:30:00      0.000     0.000    1.5253
   02/06/2018 10:45:00      0.000     0.000    1.2888
   02/06/2018 11:00:00      0.000     0.000    1.1007
   02/06/2018 11:15:00      0.000     0.000    0.9489
   02/06/2018 11:30:00      0.000     0.000    0.8249
   02/06/2018 11:45:00      0.000     0.000    0.7224
   02/06/2018 12:00:00      0.000     0.000    0.6369
   02/06/2018 12:15:00      0.000     0.000    0.5649
   02/06/2018 12:30:00      0.000     0.000    0.5038
   02/06/2018 12:45:00      0.000     0.000    0.4516
   02/06/2018 13:00:00      0.000     0.000    0.4066
   02/06/2018 13:15:00      0.000     0.000    0.3677
   02/06/2018 13:30:00      0.000     0.000    0.3338
   02/06/2018 13:45:00      0.000     0.000    0.3041
   02/06/2018 14:00:00      0.000     0.000    0.2780
   02/06/2018 14:15:00      0.000     0.000    0.2549
   02/06/2018 14:30:00      0.000     0.000    0.2345
   02/06/2018 14:45:00      0.000     0.000    0.2162
   02/06/2018 15:00:00      0.000     0.000    0.1999
   02/06/2018 15:15:00      0.000     0.000    0.1852
   02/06/2018 15:30:00      0.000     0.000    0.1720
   02/06/2018 15:45:00      0.000     0.000    0.1601
  
  
  ************
  Node Results
  ************
  
  <<< Node J1 >>>
  ----------------------------------------------------------------
                           Inflow  Flooding     Depth      Head
  Date        Time            CFS       CFS      feet      feet
  ----------------------------------------------------------------
   02/06/2018 00:15:00      0.000     0.000     0.000    96.000
   02/06/2018 00:30:00      0.000     0.000     0.000    96.000
   02/06/2018 00:45:00      0.000     0.000     0.000    96.000
   02/06/2018 01:00:00      0.000     0.000     0.000    96.000
   02/06/2018 01:15:00      0.000     0.000     0.000    96.000
   02/06/2018 01:30:00      0.000     0.000     0.000    96.000
   02/06/2018 01:45:00      0.000     0.000     0.000    96.000
   02/06/2018 02:00:00      0.000     0.000     0.000    96.000
   02/06/2018 02:15:00      0.000     0.000     0.000    96.000
   02/06/2018 02:30:00      0.000     0.000     0.000    96.000
   02/06/2018 02:45:00      0.000     0.000     0.000    96.000
   02/06/2018 03:00:00      0.000     0.000     0.000    96.000
   02/06/2018 03:15:00      0.000     0.000     0.000    96.000
   02/06/2018 03:30:00      0.000     0.000     0.000    96.000
   02/06/2018 03:45:00      0.000     0.000     0.000    96.000
   02/06/2018 04:00:00      0.000     0.000     0.000    96.000
   02/06/2018 04:15:00      0.188     0.000     0.131    96.131
   02/06/2018 04:30:00      1.072     0.000     0.348    96.348
   02/06/2018 04:45:00      2.334     0.000     0.528    96.528
   02/06/2018 05:00:00      3.647     0.000     0.672    96.672
   02/06/2018 05:15:00      7.116     0.000     0.968    96.968
   02/06/2018 05:30:00     10.219     0.000     1.211    97.211
   02/06/2018 05:45:00     12.618     0.000     1.399    97.399
   02/06/2018 06:00:00     14.332     0.000     1.545    97.545
   02/06/2018 06:15:00     14.269     0.000     1.545    97.545
   02/06/2018 06:30:00     14.216     0.000     1.540    97.540
   02/06/2018 06:45:00     14.182     0.000     1.537    97.537
   02/06/2018 07:00:00     14.160     0.000     1.535    97.535
   02/06/2018 07:15:00     12.372     0.000     1.390    97.390
   02/06/2018 07:30:00     11.215     0.000     1.298    97.298
   02/06/2018 07:45:00     10.457     0.000     1.239    97.239
   02/06/2018 08:00:00      9.949     0.000     1.199    97.199
   02/06/2018 08:15:00      8.306     0.000     1.076    97.076
   02/06/2018 08:30:00      7.202     0.000     0.989    96.989
   02/06/2018 08:45:00      6.445     0.000     0.928    96.928
   02/06/2018 09:00:00      5.911     0.000     0.883    96.883
   02/06/2018 09:15:00      4.465     0.000     0.762    96.762
   02/06/2018 09:30:00      3.462     0.000     0.665    96.665
   02/06/2018 09:45:00      2.749     0.000     0.590    96.590
   02/06/2018 10:00:00      2.225     0.000     0.530    96.530
   02/06/2018 10:15:00      1.831     0.000     0.481    96.481
   02/06/2018 10:30:00      1.528     0.000     0.439    96.439
   02/06/2018 10:45:00      1.291     0.000     0.404    96.404
   02/06/2018 11:00:00      1.103     0.000     0.374    96.374
   02/06/2018 11:15:00      0.950     0.000     0.348    96.348
   02/06/2018 11:30:00      0.826     0.000     0.325    96.325
   02/06/2018 11:45:00      0.723     0.000     0.305    96.305
   02/06/2018 12:00:00      0.638     0.000     0.288    96.288
   02/06/2018 12:15:00      0.566     0.000     0.272    96.272
   02/06/2018 12:30:00      0.504     0.000     0.257    96.257
   02/06/2018 12:45:00      0.452     0.000     0.244    96.244
   02/06/2018 13:00:00      0.407     0.000     0.233    96.233
   02/06/2018 13:15:00      0.368     0.000     0.222    96.222
   02/06/2018 13:30:00      0.334     0.000     0.212    96.212
   02/06/2018 13:45:00      0.304     0.000     0.203    96.203
   02/06/2018 14:00:00      0.278     0.000     0.195    96.195
   02/06/2018 14:15:00      0.255     0.000     0.187    96.187
   02/06/2018 14:30:00      0.235     0.000     0.180    96.180
   02/06/2018 14:45:00      0.216     0.000     0.173    96.173
   02/06/2018 15:00:00      0.200     0.000     0.167    96.167
   02/06/2018 15:15:00      0.185     0.000     0.162    96.162
   02/06/2018 15:30:00      0.172     0.000     0.156    96.156
   02/06/2018 15:45:00      0.160     0.000     0.151    96.151
  
  
  <<< Node J2 >>>
  ----------------------------------------------------------------
                           Inflow  Flooding     Depth      Head
  Date        Time            CFS       CFS      feet      feet
  ----------------------------------------------------------------
   02/06/2018 00:15:00      1.341     0.000     0.446    90.446
   02/06/2018 00:30:00      1.108     0.000     0.401    90.401
   02/06/2018 00:45:00      1.144     0.000     0.409    90.409
   02/06/2018 01:00:00      1.071     0.000     0.394    90.394
   02/06/2018 01:15:00      0.601     0.000     0.290    90.290
   02/06/2018 01:30:00      0.970     0.000     0.374    90.374
   02/06/2018 01:45:00      0.776     0.000     0.331    90.331
   02/06/2018 02:00:00      0.860     0.000     0.350    90.350
   02/06/2018 02:15:00      0.546     0.000     0.276    90.276
   02/06/2018 02:30:00      0.137     0.000     0.140    90.140
   02/06/2018 02:45:00      0.796     0.000     0.338    90.338
   02/06/2018 03:00:00      0.736     0.000     0.323    90.323
   02/06/2018 03:15:00      0.319     0.000     0.211    90.211
   02/06/2018 03:30:00      0.678     0.000     0.309    90.309
   02/06/2018 03:45:00      0.645     0.000     0.301    90.301
   02/06/2018 04:00:00      0.125     0.000     0.133    90.133
   02/06/2018 04:15:00      0.000     0.000     0.016    90.016
   02/06/2018 04:30:00      0.624     0.000     0.296    90.296
   02/06/2018 04:45:00      0.676     0.000     0.307    90.307
   02/06/2018 05:00:00      0.796     0.000     0.334    90.334
   02/06/2018 05:15:00      1.058     0.000     0.388    90.388
   02/06/2018 05:30:00      0.174     0.000     0.156    90.156
   02/06/2018 05:45:00      0.521     0.000     0.268    90.268
   02/06/2018 06:00:00      0.602     0.000     0.289    90.289
   02/06/2018 06:15:00      0.678     0.000     0.308    90.308
   02/06/2018 06:30:00      0.747     0.000     0.324    90.324
   02/06/2018 06:45:00      0.810     0.000     0.338    90.338
   02/06/2018 07:00:00      0.868     0.000     0.351    90.351
   02/06/2018 07:15:00      0.919     0.000     0.362    90.362
   02/06/2018 07:30:00      0.962     0.000     0.371    90.371
   02/06/2018 07:45:00      0.999     0.000     0.379    90.379
   02/06/2018 08:00:00      1.033     0.000     0.386    90.386
   02/06/2018 08:15:00      1.061     0.000     0.391    90.391
   02/06/2018 08:30:00      1.085     0.000     0.396    90.396
   02/06/2018 08:45:00      1.104     0.000     0.400    90.400
   02/06/2018 09:00:00      1.121     0.000     0.403    90.403
   02/06/2018 09:15:00      1.135     0.000     0.406    90.406
   02/06/2018 09:30:00      1.144     0.000     0.408    90.408
   02/06/2018 09:45:00      1.151     0.000     0.409    90.409
   02/06/2018 10:00:00      1.155     0.000     0.410    90.410
   02/06/2018 10:15:00      1.158     0.000     0.411    90.411
   02/06/2018 10:30:00      1.160     0.000     0.411    90.411
   02/06/2018 10:45:00      1.161     0.000     0.411    90.411
   02/06/2018 11:00:00      1.161     0.000     0.411    90.411
   02/06/2018 11:15:00      1.161     0.000     0.411    90.411
   02/06/2018 11:30:00      1.160     0.000     0.411    90.411
   02/06/2018 11:45:00      1.159     0.000     0.411    90.411
   02/06/2018 12:00:00      1.157     0.000     0.410    90.410
   02/06/2018 12:15:00      1.155     0.000     0.410    90.410
   02/06/2018 12:30:00      1.153     0.000     0.410    90.410
   02/06/2018 12:45:00      1.151     0.000     0.409    90.409
   02/06/2018 13:00:00      1.149     0.000     0.409    90.409
   02/06/2018 13:15:00      1.146     0.000     0.408    90.408
   02/06/2018 13:30:00      1.144     0.000     0.408    90.408
   02/06/2018 13:45:00      1.141     0.000     0.407    90.407
   02/06/2018 14:00:00      1.138     0.000     0.407    90.407
   02/06/2018 14:15:00      1.136     0.000     0.406    90.406
   02/06/2018 14:30:00      1.133     0.000     0.406    90.406
   02/06/2018 14:45:00      1.130     0.000     0.405    90.405
   02/06/2018 15:00:00      1.127     0.000     0.405    90.405
   02/06/2018 15:15:00      1.124     0.000     0.404    90.404
   02/06/2018 15:30:00      1.121     0.000     0.403    90.403
   02/06/2018 15:45:00      1.117     0.000     0.403    90.403
  
  
  <<< Node J3 >>>
  ----------------------------------------------------------------
                           Inflow  Flooding     Depth      Head
  Date        Time            CFS       CFS      feet      feet
  ----------------------------------------------------------------
   02/06/2018 00:15:00      1.343     0.000     0.557    88.557
   02/06/2018 00:30:00      1.110     0.000     0.496    88.496
   02/06/2018 00:45:00      1.148     0.000     0.507    88.507
   02/06/2018 01:00:00      1.074     0.000     0.487    88.487
   02/06/2018 01:15:00      0.602     0.000     0.353    88.353
   02/06/2018 01:30:00      0.973     0.000     0.460    88.460
   02/06/2018 01:45:00      0.777     0.000     0.405    88.405
   02/06/2018 02:00:00      0.862     0.000     0.430    88.430
   02/06/2018 02:15:00      0.547     0.000     0.336    88.336
   02/06/2018 02:30:00      0.137     0.000     0.170    88.170
   02/06/2018 02:45:00      0.805     0.000     0.414    88.414
   02/06/2018 03:00:00      0.738     0.000     0.395    88.395
   02/06/2018 03:15:00      0.319     0.000     0.255    88.255
   02/06/2018 03:30:00      0.680     0.000     0.378    88.378
   02/06/2018 03:45:00      0.646     0.000     0.367    88.367
   02/06/2018 04:00:00      0.125     0.000     0.163    88.163
   02/06/2018 04:15:00      0.001     0.000     0.051    88.051
   02/06/2018 04:30:00      0.623     0.000     0.359    88.359
   02/06/2018 04:45:00      0.672     0.000     0.371    88.371
   02/06/2018 05:00:00      0.788     0.000     0.403    88.403
   02/06/2018 05:15:00      1.040     0.000     0.467    88.467
   02/06/2018 05:30:00      0.172     0.000     0.187    88.187
   02/06/2018 05:45:00      0.516     0.000     0.322    88.322
   02/06/2018 06:00:00      0.597     0.000     0.348    88.348
   02/06/2018 06:15:00      0.674     0.000     0.372    88.372
   02/06/2018 06:30:00      0.744     0.000     0.393    88.393
   02/06/2018 06:45:00      0.807     0.000     0.411    88.411
   02/06/2018 07:00:00      0.865     0.000     0.428    88.428
   02/06/2018 07:15:00      0.917     0.000     0.442    88.442
   02/06/2018 07:30:00      0.960     0.000     0.454    88.454
   02/06/2018 07:45:00      0.997     0.000     0.464    88.464
   02/06/2018 08:00:00      1.031     0.000     0.473    88.473
   02/06/2018 08:15:00      1.060     0.000     0.481    88.481
   02/06/2018 08:30:00      1.084     0.000     0.487    88.487
   02/06/2018 08:45:00      1.103     0.000     0.493    88.493
   02/06/2018 09:00:00      1.121     0.000     0.497    88.497
   02/06/2018 09:15:00      1.134     0.000     0.501    88.501
   02/06/2018 09:30:00      1.144     0.000     0.504    88.504
   02/06/2018 09:45:00      1.151     0.000     0.505    88.505
   02/06/2018 10:00:00      1.155     0.000     0.507    88.507
   02/06/2018 10:15:00      1.158     0.000     0.507    88.507
   02/06/2018 10:30:00      1.160     0.000     0.508    88.508
   02/06/2018 10:45:00      1.161     0.000     0.508    88.508
   02/06/2018 11:00:00      1.161     0.000     0.508    88.508
   02/06/2018 11:15:00      1.161     0.000     0.508    88.508
   02/06/2018 11:30:00      1.160     0.000     0.508    88.508
   02/06/2018 11:45:00      1.159     0.000     0.508    88.508
   02/06/2018 12:00:00      1.157     0.000     0.507    88.507
   02/06/2018 12:15:00      1.155     0.000     0.507    88.507
   02/06/2018 12:30:00      1.153     0.000     0.506    88.506
   02/06/2018 12:45:00      1.151     0.000     0.506    88.506
   02/06/2018 13:00:00      1.149     0.000     0.505    88.505
   02/06/2018 13:15:00      1.147     0.000     0.505    88.505
   02/06/2018 13:30:00      1.144     0.000     0.504    88.504
   02/06/2018 13:45:00      1.141     0.000     0.503    88.503
   02/06/2018 14:00:00      1.139     0.000     0.502    88.502
   02/06/2018 14:15:00      1.136     0.000     0.502    88.502
   02/06/2018 14:30:00      1.133     0.000     0.501    88.501
   02/06/2018 14:45:00      1.130     0.000     0.500    88.500
   02/06/2018 15:00:00      1.127     0.000     0.499    88.499
   02/06/2018 15:15:00      1.124     0.000     0.499    88.499
   02/06/2018 15:30:00      1.121     0.000     0.498    88.498
   02/06/2018 15:45:00      1.118     0.000     0.497    88.497
  
  
  <<< Node Out1 >>>
  ----------------------------------------------------------------
                           Inflow  Flooding     Depth      Head
  Date        Time            CFS       CFS      feet      feet
  ----------------------------------------------------------------
   02/06/2018 00:15:00      1.349     0.000     0.491    87.491
   02/06/2018 00:30:00      1.114     0.000     0.444    87.444
   02/06/2018 00:45:00      1.157     0.000     0.453    87.453
   02/06/2018 01:00:00      1.082     0.000     0.438    87.438
   02/06/2018 01:15:00      0.603     0.000     0.323    87.323
   02/06/2018 01:30:00      0.981     0.000     0.415    87.415
   02/06/2018 01:45:00      0.779     0.000     0.368    87.368
   02/06/2018 02:00:00      0.869     0.000     0.390    87.390
   02/06/2018 02:15:00      0.548     0.000     0.307    87.307
   02/06/2018 02:30:00      0.139     0.000     0.151    87.151
   02/06/2018 02:45:00      0.813     0.000     0.376    87.376
   02/06/2018 03:00:00      0.743     0.000     0.360    87.360
   02/06/2018 03:15:00      0.320     0.000     0.233    87.233
   02/06/2018 03:30:00      0.685     0.000     0.344    87.344
   02/06/2018 03:45:00      0.649     0.000     0.335    87.335
   02/06/2018 04:00:00      0.127     0.000     0.144    87.144
   02/06/2018 04:15:00      0.010     0.000     0.041    87.041
   02/06/2018 04:30:00      0.622     0.000     0.328    87.328
   02/06/2018 04:45:00      0.662     0.000     0.338    87.338
   02/06/2018 05:00:00      0.769     0.000     0.366    87.366
   02/06/2018 05:15:00      0.998     0.000     0.419    87.419
   02/06/2018 05:30:00      0.169     0.000     0.168    87.168
   02/06/2018 05:45:00      0.504     0.000     0.294    87.294
   02/06/2018 06:00:00      0.586     0.000     0.318    87.318
   02/06/2018 06:15:00      0.665     0.000     0.339    87.339
   02/06/2018 06:30:00      0.735     0.000     0.358    87.358
   02/06/2018 06:45:00      0.799     0.000     0.373    87.373
   02/06/2018 07:00:00      0.858     0.000     0.387    87.387
   02/06/2018 07:15:00      0.911     0.000     0.400    87.400
   02/06/2018 07:30:00      0.955     0.000     0.410    87.410
   02/06/2018 07:45:00      0.993     0.000     0.418    87.418
   02/06/2018 08:00:00      1.027     0.000     0.425    87.425
   02/06/2018 08:15:00      1.057     0.000     0.432    87.432
   02/06/2018 08:30:00      1.081     0.000     0.437    87.437
   02/06/2018 08:45:00      1.101     0.000     0.442    87.442
   02/06/2018 09:00:00      1.119     0.000     0.445    87.445
   02/06/2018 09:15:00      1.133     0.000     0.448    87.448
   02/06/2018 09:30:00      1.143     0.000     0.450    87.450
   02/06/2018 09:45:00      1.150     0.000     0.451    87.451
   02/06/2018 10:00:00      1.155     0.000     0.452    87.452
   02/06/2018 10:15:00      1.158     0.000     0.453    87.453
   02/06/2018 10:30:00      1.160     0.000     0.453    87.453
   02/06/2018 10:45:00      1.161     0.000     0.454    87.454
   02/06/2018 11:00:00      1.161     0.000     0.454    87.454
   02/06/2018 11:15:00      1.161     0.000     0.454    87.454
   02/06/2018 11:30:00      1.160     0.000     0.453    87.453
   02/06/2018 11:45:00      1.159     0.000     0.453    87.453
   02/06/2018 12:00:00      1.157     0.000     0.453    87.453
   02/06/2018 12:15:00      1.156     0.000     0.453    87.453
   02/06/2018 12:30:00      1.154     0.000     0.452    87.452
   02/06/2018 12:45:00      1.152     0.000     0.452    87.452
   02/06/2018 13:00:00      1.149     0.000     0.451    87.451
   02/06/2018 13:15:00      1.147     0.000     0.451    87.451
   02/06/2018 13:30:00      1.144     0.000     0.450    87.450
   02/06/2018 13:45:00      1.142     0.000     0.450    87.450
   02/06/2018 14:00:00      1.139     0.000     0.449    87.449
   02/06/2018 14:15:00      1.136     0.000     0.449    87.449
   02/06/2018 14:30:00      1.133     0.000     0.448    87.448
   02/06/2018 14:45:00      1.130     0.000     0.447    87.447
   02/06/2018 15:00:00      1.127     0.000     0.447    87.447
   02/06/2018 15:15:00      1.124     0.000     0.446    87.446
   02/06/2018 15:30:00      1.121     0.000     0.446    87.446
   02/06/2018 15:45:00      1.118     0.000     0.445    87.445
  
  
  <<< Node St1 >>>
  ----------------------------------------------------------------
                           Inflow  Flooding     Depth      Head
  Date        Time            CFS       CFS      feet      feet
  ----------------------------------------------------------------
   02/06/2018 00:15:00      0.000     0.000     0.719    90.719
   02/06/2018 00:30:00      0.000     0.000     0.694    90.694
   02/06/2018 00:45:00      0.000     0.000     0.667    90.667
   02/06/2018 01:00:00      0.000     0.000     0.642    90.642
   02/06/2018 01:15:00      0.000     0.000     0.628    90.628
   02/06/2018 01:30:00      0.000     0.000     0.606    90.606
   02/06/2018 01:45:00      0.000     0.000     0.588    90.588
   02/06/2018 02:00:00      0.000     0.000     0.568    90.568
   02/06/2018 02:15:00      0.000     0.000     0.556    90.556
   02/06/2018 02:30:00      0.000     0.000     0.552    90.552
   02/06/2018 02:45:00      0.000     0.000     0.534    90.534
   02/06/2018 03:00:00      0.000     0.000     0.517    90.517
   02/06/2018 03:15:00      0.000     0.000     0.509    90.509
   02/06/2018 03:30:00      0.000     0.000     0.494    90.494
   02/06/2018 03:45:00      0.000     0.000     0.479    90.479
   02/06/2018 04:00:00      0.000     0.000     0.476    90.476
   02/06/2018 04:15:00      0.113     0.000     0.476    90.476
   02/06/2018 04:30:00      0.937     0.000     0.473    90.473
   02/06/2018 04:45:00      2.207     0.000     0.493    90.493
   02/06/2018 05:00:00      3.538     0.000     0.541    90.541
   02/06/2018 05:15:00      6.867     0.000     0.636    90.636
   02/06/2018 05:30:00     10.024     0.000     0.823    90.823
   02/06/2018 05:45:00     12.474     0.000     1.067    91.067
   02/06/2018 06:00:00     14.228     0.000     1.356    91.356
   02/06/2018 06:15:00     14.274     0.000     1.663    91.663
   02/06/2018 06:30:00     14.219     0.000     1.968    91.968
   02/06/2018 06:45:00     14.184     0.000     2.270    92.270
   02/06/2018 07:00:00     14.161     0.000     2.570    92.570
   02/06/2018 07:15:00     12.475     0.000     2.850    92.850
   02/06/2018 07:30:00     11.281     0.000     3.095    93.095
   02/06/2018 07:45:00     10.501     0.000     3.317    93.317
   02/06/2018 08:00:00      9.979     0.000     3.524    93.524
   02/06/2018 08:15:00      8.405     0.000     3.708    93.708
   02/06/2018 08:30:00      7.270     0.000     3.859    93.859
   02/06/2018 08:45:00      6.493     0.000     3.989    93.989
   02/06/2018 09:00:00      5.946     0.000     4.103    94.103
   02/06/2018 09:15:00      4.565     0.000     4.196    94.196
   02/06/2018 09:30:00      3.536     0.000     4.261    94.261
   02/06/2018 09:45:00      2.805     0.000     4.306    94.306
   02/06/2018 10:00:00      2.269     0.000     4.337    94.337
   02/06/2018 10:15:00      1.866     0.000     4.357    94.357
   02/06/2018 10:30:00      1.557     0.000     4.369    94.369
   02/06/2018 10:45:00      1.315     0.000     4.376    94.376
   02/06/2018 11:00:00      1.122     0.000     4.377    94.377
   02/06/2018 11:15:00      0.968     0.000     4.374    94.374
   02/06/2018 11:30:00      0.840     0.000     4.368    94.368
   02/06/2018 11:45:00      0.736     0.000     4.360    94.360
   02/06/2018 12:00:00      0.648     0.000     4.349    94.349
   02/06/2018 12:15:00      0.575     0.000     4.337    94.337
   02/06/2018 12:30:00      0.513     0.000     4.323    94.323
   02/06/2018 12:45:00      0.459     0.000     4.308    94.308
   02/06/2018 13:00:00      0.414     0.000     4.292    94.292
   02/06/2018 13:15:00      0.374     0.000     4.275    94.275
   02/06/2018 13:30:00      0.339     0.000     4.258    94.258
   02/06/2018 13:45:00      0.309     0.000     4.239    94.239
   02/06/2018 14:00:00      0.283     0.000     4.220    94.220
   02/06/2018 14:15:00      0.259     0.000     4.201    94.201
   02/06/2018 14:30:00      0.238     0.000     4.181    94.181
   02/06/2018 14:45:00      0.220     0.000     4.160    94.160
   02/06/2018 15:00:00      0.203     0.000     4.140    94.140
   02/06/2018 15:15:00      0.188     0.000     4.119    94.119
   02/06/2018 15:30:00      0.175     0.000     4.098    94.098
   02/06/2018 15:45:00      0.163     0.000     4.076    94.076
  
  
  ************
  Link Results
  ************
  
  <<< Link C1 >>>
  ----------------------------------------------------------------
                             Flow  Velocity     Depth  Capacity/
  Date        Time            CFS    ft/sec      feet   Setting 
  ----------------------------------------------------------------
   02/06/2018 00:15:00      0.000     0.000     0.000     0.000
   02/06/2018 00:30:00      0.000     0.000     0.000     0.000
   02/06/2018 00:45:00      0.000     0.000     0.000     0.000
   02/06/2018 01:00:00      0.000     0.000     0.000     0.000
   02/06/2018 01:15:00      0.000     0.000     0.000     0.000
   02/06/2018 01:30:00      0.000     0.000     0.000     0.000
   02/06/2018 01:45:00      0.000     0.000     0.000     0.000
   02/06/2018 02:00:00      0.000     0.000     0.000     0.000
   02/06/2018 02:15:00      0.000     0.000     0.000     0.000
   02/06/2018 02:30:00      0.000     0.000     0.000     0.000
   02/06/2018 02:45:00      0.000     0.000     0.000     0.000
   02/06/2018 03:00:00      0.000     0.000     0.000     0.000
   02/06/2018 03:15:00      0.000     0.000     0.000     0.000
   02/06/2018 03:30:00      0.000     0.000     0.000     0.000
   02/06/2018 03:45:00      0.000     0.000     0.000     0.000
   02/06/2018 04:00:00      0.000     0.000     0.000     0.000
   02/06/2018 04:15:00      0.113     1.483     0.120     0.024
   02/06/2018 04:30:00      0.937     2.647     0.340     0.113
   02/06/2018 04:45:00      2.207     3.386     0.521     0.207
   02/06/2018 05:00:00      3.538     3.875     0.665     0.291
   02/06/2018 05:15:00      6.867     4.680     0.948     0.467
   02/06/2018 05:30:00     10.024     5.242     1.172     0.609
   02/06/2018 05:45:00     12.474     5.603     1.334     0.709
   02/06/2018 06:00:00     14.228     5.826     1.452     0.777
   02/06/2018 06:15:00     14.274     5.839     1.453     0.778
   02/06/2018 06:30:00     14.219     5.833     1.449     0.776
   02/06/2018 06:45:00     14.184     5.829     1.447     0.775
   02/06/2018 07:00:00     14.161     5.826     1.445     0.774
   02/06/2018 07:15:00     12.475     5.624     1.330     0.706
   02/06/2018 07:30:00     11.281     5.454     1.252     0.658
   02/06/2018 07:45:00     10.501     5.338     1.200     0.626
   02/06/2018 08:00:00      9.979     5.257     1.165     0.604
   02/06/2018 08:15:00      8.405     5.002     1.055     0.535
   02/06/2018 08:30:00      7.270     4.791     0.973     0.483
   02/06/2018 08:45:00      6.493     4.636     0.915     0.446
   02/06/2018 09:00:00      5.946     4.518     0.872     0.419
   02/06/2018 09:15:00      4.565     4.197     0.756     0.346
   02/06/2018 09:30:00      3.536     3.899     0.661     0.289
   02/06/2018 09:45:00      2.805     3.650     0.587     0.245
   02/06/2018 10:00:00      2.269     3.438     0.526     0.210
   02/06/2018 10:15:00      1.866     3.249     0.477     0.183
   02/06/2018 10:30:00      1.557     3.090     0.435     0.160
   02/06/2018 10:45:00      1.315     2.941     0.400     0.142
   02/06/2018 11:00:00      1.122     2.819     0.369     0.127
   02/06/2018 11:15:00      0.968     2.699     0.343     0.114
   02/06/2018 11:30:00      0.840     2.590     0.320     0.103
   02/06/2018 11:45:00      0.736     2.501     0.299     0.094
   02/06/2018 12:00:00      0.648     2.418     0.281     0.085
   02/06/2018 12:15:00      0.575     2.330     0.265     0.079
   02/06/2018 12:30:00      0.513     2.248     0.251     0.073
   02/06/2018 12:45:00      0.459     2.183     0.237     0.067
   02/06/2018 13:00:00      0.414     2.124     0.225     0.062
   02/06/2018 13:15:00      0.374     2.069     0.214     0.058
   02/06/2018 13:30:00      0.339     2.016     0.204     0.054
   02/06/2018 13:45:00      0.309     1.961     0.195     0.050
   02/06/2018 14:00:00      0.283     1.906     0.187     0.047
   02/06/2018 14:15:00      0.259     1.854     0.179     0.044
   02/06/2018 14:30:00      0.238     1.805     0.173     0.042
   02/06/2018 14:45:00      0.220     1.758     0.167     0.040
   02/06/2018 15:00:00      0.203     1.733     0.160     0.037
   02/06/2018 15:15:00      0.188     1.700     0.153     0.035
   02/06/2018 15:30:00      0.175     1.670     0.147     0.033
   02/06/2018 15:45:00      0.163     1.642     0.142     0.032
  
  
  <<< Link C2 >>>
  ----------------------------------------------------------------
                             Flow  Velocity     Depth  Capacity/
  Date        Time            CFS    ft/sec      feet   Setting 
  ----------------------------------------------------------------
   02/06/2018 00:15:00      1.343     3.408     0.501     0.502
   02/06/2018 00:30:00      1.110     3.253     0.448     0.434
   02/06/2018 00:45:00      1.148     3.276     0.458     0.446
   02/06/2018 01:00:00      1.074     3.221     0.441     0.425
   02/06/2018 01:15:00      0.602     2.758     0.322     0.278
   02/06/2018 01:30:00      0.973     3.138     0.417     0.395
   02/06/2018 01:45:00      0.777     2.958     0.368     0.334
   02/06/2018 02:00:00      0.862     3.040     0.390     0.361
   02/06/2018 02:15:00      0.547     2.683     0.306     0.260
   02/06/2018 02:30:00      0.137     1.772     0.155     0.099
   02/06/2018 02:45:00      0.805     2.976     0.376     0.344
   02/06/2018 03:00:00      0.738     2.914     0.359     0.323
   02/06/2018 03:15:00      0.319     2.295     0.233     0.177
   02/06/2018 03:30:00      0.680     2.849     0.343     0.304
   02/06/2018 03:45:00      0.646     2.812     0.334     0.293
   02/06/2018 04:00:00      0.125     1.719     0.148     0.093
   02/06/2018 04:15:00      0.001     0.168     0.033     0.010
   02/06/2018 04:30:00      0.623     2.789     0.327     0.284
   02/06/2018 04:45:00      0.672     2.860     0.339     0.299
   02/06/2018 05:00:00      0.788     2.997     0.369     0.335
   02/06/2018 05:15:00      1.040     3.245     0.428     0.408
   02/06/2018 05:30:00      0.172     1.919     0.171     0.114
   02/06/2018 05:45:00      0.516     2.661     0.295     0.247
   02/06/2018 06:00:00      0.597     2.771     0.319     0.274
   02/06/2018 06:15:00      0.674     2.863     0.340     0.300
   02/06/2018 06:30:00      0.744     2.938     0.358     0.322
   02/06/2018 06:45:00      0.807     3.002     0.375     0.342
   02/06/2018 07:00:00      0.865     3.058     0.389     0.360
   02/06/2018 07:15:00      0.917     3.104     0.402     0.376
   02/06/2018 07:30:00      0.960     3.140     0.412     0.389
   02/06/2018 07:45:00      0.997     3.170     0.421     0.401
   02/06/2018 08:00:00      1.031     3.198     0.429     0.411
   02/06/2018 08:15:00      1.060     3.221     0.436     0.419
   02/06/2018 08:30:00      1.084     3.240     0.442     0.426
   02/06/2018 08:45:00      1.103     3.254     0.446     0.432
   02/06/2018 09:00:00      1.121     3.267     0.450     0.437
   02/06/2018 09:15:00      1.134     3.276     0.453     0.441
   02/06/2018 09:30:00      1.144     3.283     0.456     0.444
   02/06/2018 09:45:00      1.151     3.287     0.457     0.446
   02/06/2018 10:00:00      1.155     3.290     0.458     0.447
   02/06/2018 10:15:00      1.158     3.292     0.459     0.448
   02/06/2018 10:30:00      1.160     3.293     0.459     0.448
   02/06/2018 10:45:00      1.161     3.294     0.460     0.449
   02/06/2018 11:00:00      1.161     3.294     0.460     0.449
   02/06/2018 11:15:00      1.161     3.294     0.460     0.449
   02/06/2018 11:30:00      1.160     3.293     0.459     0.448
   02/06/2018 11:45:00      1.159     3.292     0.459     0.448
   02/06/2018 12:00:00      1.157     3.291     0.459     0.448
   02/06/2018 12:15:00      1.155     3.290     0.458     0.447
   02/06/2018 12:30:00      1.153     3.288     0.458     0.447
   02/06/2018 12:45:00      1.151     3.287     0.458     0.446
   02/06/2018 13:00:00      1.149     3.285     0.457     0.445
   02/06/2018 13:15:00      1.147     3.283     0.456     0.445
   02/06/2018 13:30:00      1.144     3.282     0.456     0.444
   02/06/2018 13:45:00      1.141     3.280     0.455     0.443
   02/06/2018 14:00:00      1.139     3.278     0.455     0.442
   02/06/2018 14:15:00      1.136     3.276     0.454     0.441
   02/06/2018 14:30:00      1.133     3.274     0.453     0.441
   02/06/2018 14:45:00      1.130     3.271     0.453     0.440
   02/06/2018 15:00:00      1.127     3.269     0.452     0.439
   02/06/2018 15:15:00      1.124     3.267     0.451     0.438
   02/06/2018 15:30:00      1.121     3.265     0.451     0.437
   02/06/2018 15:45:00      1.118     3.262     0.450     0.436
  
  
  <<< Link C3 >>>
  ----------------------------------------------------------------
                             Flow  Velocity     Depth  Capacity/
  Date        Time            CFS    ft/sec      feet   Setting 
  ----------------------------------------------------------------
   02/06/2018 00:15:00      1.349     3.239     0.524     0.530
   02/06/2018 00:30:00      1.114     3.072     0.470     0.462
   02/06/2018 00:45:00      1.157     3.106     0.480     0.474
   02/06/2018 01:00:00      1.082     3.048     0.462     0.452
   02/06/2018 01:15:00      0.603     2.583     0.338     0.297
   02/06/2018 01:30:00      0.981     2.966     0.438     0.421
   02/06/2018 01:45:00      0.779     2.778     0.387     0.357
   02/06/2018 02:00:00      0.869     2.865     0.410     0.386
   02/06/2018 02:15:00      0.548     2.516     0.321     0.277
   02/06/2018 02:30:00      0.139     1.702     0.161     0.104
   02/06/2018 02:45:00      0.813     2.814     0.395     0.368
   02/06/2018 03:00:00      0.743     2.741     0.377     0.345
   02/06/2018 03:15:00      0.320     2.158     0.244     0.189
   02/06/2018 03:30:00      0.685     2.680     0.361     0.325
   02/06/2018 03:45:00      0.649     2.639     0.351     0.313
   02/06/2018 04:00:00      0.127     1.661     0.154     0.098
   02/06/2018 04:15:00      0.010     0.789     0.046     0.017
   02/06/2018 04:30:00      0.622     2.606     0.343     0.304
   02/06/2018 04:45:00      0.662     2.652     0.355     0.318
   02/06/2018 05:00:00      0.769     2.763     0.384     0.354
   02/06/2018 05:15:00      0.998     2.972     0.443     0.428
   02/06/2018 05:30:00      0.169     1.799     0.177     0.120
   02/06/2018 05:45:00      0.504     2.453     0.308     0.262
   02/06/2018 06:00:00      0.586     2.559     0.333     0.292
   02/06/2018 06:15:00      0.665     2.654     0.356     0.319
   02/06/2018 06:30:00      0.735     2.730     0.375     0.343
   02/06/2018 06:45:00      0.799     2.797     0.392     0.364
   02/06/2018 07:00:00      0.858     2.853     0.407     0.383
   02/06/2018 07:15:00      0.911     2.900     0.421     0.400
   02/06/2018 07:30:00      0.955     2.941     0.432     0.413
   02/06/2018 07:45:00      0.993     2.974     0.441     0.425
   02/06/2018 08:00:00      1.027     3.002     0.449     0.436
   02/06/2018 08:15:00      1.057     3.026     0.457     0.445
   02/06/2018 08:30:00      1.081     3.045     0.462     0.452
   02/06/2018 08:45:00      1.101     3.060     0.467     0.458
   02/06/2018 09:00:00      1.119     3.074     0.471     0.463
   02/06/2018 09:15:00      1.133     3.086     0.474     0.467
   02/06/2018 09:30:00      1.143     3.093     0.477     0.470
   02/06/2018 09:45:00      1.150     3.099     0.478     0.472
   02/06/2018 10:00:00      1.155     3.102     0.480     0.474
   02/06/2018 10:15:00      1.158     3.105     0.480     0.475
   02/06/2018 10:30:00      1.160     3.106     0.481     0.475
   02/06/2018 10:45:00      1.161     3.107     0.481     0.476
   02/06/2018 11:00:00      1.161     3.107     0.481     0.476
   02/06/2018 11:15:00      1.161     3.107     0.481     0.476
   02/06/2018 11:30:00      1.160     3.106     0.481     0.475
   02/06/2018 11:45:00      1.159     3.105     0.480     0.475
   02/06/2018 12:00:00      1.157     3.104     0.480     0.475
   02/06/2018 12:15:00      1.156     3.103     0.480     0.474
   02/06/2018 12:30:00      1.154     3.102     0.479     0.474
   02/06/2018 12:45:00      1.152     3.100     0.479     0.473
   02/06/2018 13:00:00      1.149     3.098     0.478     0.472
   02/06/2018 13:15:00      1.147     3.097     0.478     0.472
   02/06/2018 13:30:00      1.144     3.095     0.477     0.471
   02/06/2018 13:45:00      1.142     3.093     0.476     0.470
   02/06/2018 14:00:00      1.139     3.091     0.476     0.469
   02/06/2018 14:15:00      1.136     3.088     0.475     0.468
   02/06/2018 14:30:00      1.133     3.086     0.475     0.468
   02/06/2018 14:45:00      1.130     3.084     0.474     0.467
   02/06/2018 15:00:00      1.127     3.082     0.473     0.466
   02/06/2018 15:15:00      1.124     3.079     0.472     0.465
   02/06/2018 15:30:00      1.121     3.077     0.472     0.464
   02/06/2018 15:45:00      1.118     3.074     0.471     0.463
  
  
  <<< Link R1 >>>
  ----------------------------------------------------------------
                             Flow  Velocity     Depth  Capacity/
  Date        Time            CFS    ft/sec      feet   Setting 
  ----------------------------------------------------------------
   02/06/2018 00:15:00      1.341     0.000     0.600     0.600
   02/06/2018 00:30:00      1.108     0.000     0.500     0.500
   02/06/2018 00:45:00      1.144     0.000     0.800     0.800
   02/06/2018 01:00:00      1.071     0.000     0.700     0.700
   02/06/2018 01:15:00      0.601     0.000     0.300     0.300
   02/06/2018 01:30:00      0.970     0.000     0.800     0.800
   02/06/2018 01:45:00      0.776     0.000     0.400     0.400
   02/06/2018 02:00:00      0.860     0.000     0.600     0.600
   02/06/2018 02:15:00      0.546     0.000     0.300     0.300
   02/06/2018 02:30:00      0.137     0.000     0.100     0.100
   02/06/2018 02:45:00      0.796     0.000     0.500     0.500
   02/06/2018 03:00:00      0.736     0.000     0.800     0.800
   02/06/2018 03:15:00      0.319     0.000     0.200     0.200
   02/06/2018 03:30:00      0.678     0.000     0.700     0.700
   02/06/2018 03:45:00      0.645     0.000     0.400     0.400
   02/06/2018 04:00:00      0.125     0.000     0.100     0.100
   02/06/2018 04:15:00      0.000     0.000     0.100     0.000
   02/06/2018 04:30:00      0.624     0.000     0.600     0.600
   02/06/2018 04:45:00      0.676     0.000     0.900     0.900
   02/06/2018 05:00:00      0.796     0.000     0.600     0.600
   02/06/2018 05:15:00      1.058     0.000     0.900     0.900
   02/06/2018 05:30:00      0.174     0.000     0.100     0.100
   02/06/2018 05:45:00      0.521     0.000     0.200     0.200
   02/06/2018 06:00:00      0.602     0.000     0.200     0.200
   02/06/2018 06:15:00      0.678     0.000     0.200     0.200
   02/06/2018 06:30:00      0.747     0.000     0.200     0.200
   02/06/2018 06:45:00      0.810     0.000     0.200     0.200
   02/06/2018 07:00:00      0.868     0.000     0.200     0.200
   02/06/2018 07:15:00      0.919     0.000     0.200     0.200
   02/06/2018 07:30:00      0.962     0.000     0.200     0.200
   02/06/2018 07:45:00      0.999     0.000     0.200     0.200
   02/06/2018 08:00:00      1.033     0.000     0.200     0.200
   02/06/2018 08:15:00      1.061     0.000     0.200     0.200
   02/06/2018 08:30:00      1.085     0.000     0.200     0.200
   02/06/2018 08:45:00      1.104     0.000     0.200     0.200
   02/06/2018 09:00:00      1.121     0.000     0.200     0.200
   02/06/2018 09:15:00      1.135     0.000     0.200     0.200
   02/06/2018 09:30:00      1.144     0.000     0.200     0.200
   02/06/2018 09:45:00      1.151     0.000     0.200     0.200
   02/06/2018 10:00:00      1.155     0.000     0.200     0.200
   02/06/2018 10:15:00      1.158     0.000     0.200     0.200
   02/06/2018 10:30:00      1.160     0.000     0.200     0.200
   02/06/2018 10:45:00      1.161     0.000     0.200     0.200
   02/06/2018 11:00:00      1.161     0.000     0.200     0.200
   02/06/2018 11:15:00      1.161     0.000     0.200     0.200
   02/06/2018 11:30:00      1.160     0.000     0.200     0.200
   02/06/2018 11:45:00      1.159     0.000     0.200     0.200
   02/06/2018 12:00:00      1.157     0.000     0.200     0.200
   02/06/2018 12:15:00      1.155     0.000     0.200     0.200
   02/06/2018 12:30:00      1.153     0.000     0.200     0.200
   02/06/2018 12:45:00      1.151     0.000     0.200     0.200
   02/06/2018 13:00:00      1.149     0.000     0.200     0.200
   02/06/2018 13:15:00      1.146     0.000     0.200     0.200
   02/06/2018 13:30:00      1.144     0.000     0.200     0.200
   02/06/2018 13:45:00      1.141     0.000     0.200     0.200
   02/06/2018 14:00:00      1.138     0.000     0.200     0.200
   02/06/2018 14:15:00      1.136     0.000     0.200     0.200
   02/06/2018 14:30:00      1.133     0.000     0.200     0.200
   02/06/2018 14:45:00      1.130     0.000     0.200     0.200
   02/06/2018 15:00:00      1.127     0.000     0.200     0.200
   02/06/2018 15:15:00      1.124     0.000     0.200     0.200
   02/06/2018 15:30:00      1.121     0.000     0.200     0.200
   02/06/2018 15:45:00      1.117     0.000     0.200     0.200
  

  Analysis begun on:  Thu Apr 26 16:22:56 2018
  Analysis ended on:  Thu Apr 26 16:22:56 2018
  Total elapsed time: < 1 sec