
  EPA STORM WATER MANAGEMENT MODEL - VERSION 5.1 (Build 5.1.012)
  --------------------------------------------------------------

  
  *********************************************************
  NOTE: The summary statistics displayed in this report are
  based on results found at every computational time step,  
  not just on results from each reporting time step.
  *********************************************************
  
  ****************
  Analysis Options
  ****************
  Flow Units ............... CFS
  Process Models:
    Rainfall/Runoff ........ YES
    RDII ................... NO
    Snowmelt ............... NO
    Groundwater ............ NO
    Flow Routing ........... YES
    Ponding Allowed ........ NO
    Water Quality .......... NO
  Infiltration Method ...... MODIFIED_GREEN_AMPT
  Flow Routing Method ...... DYNWAVE
  Starting Date ............ 02/06/2018 00:00:00
  Ending Date .............. 02/06/2018 16:00:00
  Antecedent Dry Days ...... 0.0
  Report Time Step ......... 00:15:00
  Wet Time Step ............ 00:05:00
  Dry Time Step ............ 01:00:00
  Routing Time Step ........ 10.00 sec
  Variable Time Step ....... YES
  Maximum Trials ........... 8
  Number of Threads ........ 1
  Head Tolerance ........... 0.005000 ft
  
  
  **************************        Volume         Depth
  Runoff Quantity Continuity     acre-feet        inches
  **************************     ---------       -------
  Total Precipitation ......         8.896         1.525
  Evaporation Loss .........         0.000         0.000
  Infiltration Loss ........         4.448         0.762
  Surface Runoff ...........         4.265         0.731
  Final Storage ............         0.184         0.032
  Continuity Error (%) .....        -0.016
  
  
  **************************        Volume        Volume
  Flow Routing Continuity        acre-feet      10^6 gal
  **************************     ---------     ---------
  Dry Weather Inflow .......         0.000         0.000
  Wet Weather Inflow .......         4.265         1.390
  Groundwater Inflow .......         0.000         0.000
  RDII Inflow ..............         0.000         0.000
  External Inflow ..........         0.000         0.000
  External Outflow .........         2.257         0.736
  Flooding Loss ............         0.001         0.000
  Evaporation Loss .........         0.000         0.000
  Exfiltration Loss ........         0.000         0.000
  Initial Stored Volume ....         0.689         0.224
  Final Stored Volume ......         2.703         0.881
  Continuity Error (%) .....        -0.167
  
  
  ***************************
  Time-Step Critical Elements
  ***************************
  None
  
  
  ********************************
  Highest Flow Instability Indexes
  ********************************
  Link R1 (4)
  Link C2 (2)
  
  
  *************************
  Routing Time Step Summary
  *************************
  Minimum Time Step           :     1.59 sec
  Average Time Step           :    10.00 sec
  Maximum Time Step           :    10.00 sec
  Percent in Steady State     :     0.00
  Average Iterations per Step :     2.12
  Percent Not Converging      :     0.97
  
  
  ***************************
  Subcatchment Runoff Summary
  ***************************
  
  --------------------------------------------------------------------------------------------------------
                            Total      Total      Total      Total      Total       Total     Peak  Runoff
                           Precip      Runon       Evap      Infil     Runoff      Runoff   Runoff   Coeff
  Subcatchment                 in         in         in         in         in    10^6 gal      CFS
  --------------------------------------------------------------------------------------------------------
  S1                         1.52       0.00       0.00       0.76       0.73        1.39    14.35   0.479
  
  
  ******************
  Node Depth Summary
  ******************
  
  ---------------------------------------------------------------------------------
                                 Average  Maximum  Maximum  Time of Max    Reported
                                   Depth    Depth      HGL   Occurrence   Max Depth
  Node                 Type         Feet     Feet     Feet  days hr:min        Feet
  ---------------------------------------------------------------------------------
  J1                   JUNCTION     0.48     1.55    97.55     0  06:01        1.54
  J2                   JUNCTION     0.73     2.67    92.67     0  09:15        2.25
  J3                   JUNCTION     0.84     2.00    90.00     0  09:15        2.00
  Out1                 OUTFALL      0.50     0.80    87.80     0  09:23        0.80
  St1                  STORAGE      2.20     3.62    93.62     0  11:00        3.62
  
  
  *******************
  Node Inflow Summary
  *******************
  
  -------------------------------------------------------------------------------------------------
                                  Maximum  Maximum                  Lateral       Total        Flow
                                  Lateral    Total  Time of Max      Inflow      Inflow     Balance
                                   Inflow   Inflow   Occurrence      Volume      Volume       Error
  Node                 Type           CFS      CFS  days hr:min    10^6 gal    10^6 gal     Percent
  -------------------------------------------------------------------------------------------------
  J1                   JUNCTION     14.35    14.35     0  06:00        1.39        1.39       0.021
  J2                   JUNCTION      0.00     5.19     0  15:30           0       0.738      -0.020
  J3                   JUNCTION      0.00     3.91     0  15:32           0       0.738       0.271
  Out1                 OUTFALL       0.00     3.47     0  09:23           0       0.735       0.000
  St1                  STORAGE       0.00    14.35     0  06:02           0        1.61       0.003
  
  
  **********************
  Node Surcharge Summary
  **********************
  
  Surcharging occurs when water rises above the top of the highest conduit.
  ---------------------------------------------------------------------
                                               Max. Height   Min. Depth
                                   Hours       Above Crown    Below Rim
  Node                 Type      Surcharged           Feet         Feet
  ---------------------------------------------------------------------
  J2                   JUNCTION        4.54          1.674        2.326
  J3                   JUNCTION        5.72          1.000        0.000
  
  
  *********************
  Node Flooding Summary
  *********************
  
  Flooding refers to all water that overflows a node, whether it ponds or not.
  --------------------------------------------------------------------------
                                                             Total   Maximum
                                 Maximum   Time of Max       Flood    Ponded
                        Hours       Rate    Occurrence      Volume     Depth
  Node                 Flooded       CFS   days hr:min    10^6 gal      Feet
  --------------------------------------------------------------------------
  J3                      0.51      0.95      0  11:02       0.000     0.000
  
  
  **********************
  Storage Volume Summary
  **********************
  
  --------------------------------------------------------------------------------------------------
                         Average     Avg  Evap Exfil       Maximum     Max    Time of Max    Maximum
                          Volume    Pcnt  Pcnt  Pcnt        Volume    Pcnt     Occurrence    Outflow
  Storage Unit          1000 ft3    Full  Loss  Loss      1000 ft3    Full    days hr:min        CFS
  --------------------------------------------------------------------------------------------------
  St1                     88.147      44     0     0       144.689      72       0  11:00       5.19
  
  
  ***********************
  Outfall Loading Summary
  ***********************
  
  -----------------------------------------------------------
                         Flow       Avg       Max       Total
                         Freq      Flow      Flow      Volume
  Outfall Node           Pcnt       CFS       CFS    10^6 gal
  -----------------------------------------------------------
  Out1                  99.95      1.71      3.47       0.735
  -----------------------------------------------------------
  System                99.95      1.71      3.47       0.735
  
  
  ********************
  Link Flow Summary
  ********************
  
  -----------------------------------------------------------------------------
                                 Maximum  Time of Max   Maximum    Max/    Max/
                                  |Flow|   Occurrence   |Veloc|    Full    Full
  Link                 Type          CFS  days hr:min    ft/sec    Flow   Depth
  -----------------------------------------------------------------------------
  C1                   CONDUIT     14.35     0  06:02      5.85    0.98    0.73
  C2                   CONDUIT      3.91     0  15:32      6.14    1.20    1.00
  C3                   CONDUIT      3.47     0  09:23      4.67    1.50    0.90
  R1                   ORIFICE      5.19     0  15:30                          
  
  
  ***************************
  Flow Classification Summary
  ***************************
  
  -------------------------------------------------------------------------------------
                      Adjusted    ---------- Fraction of Time in Flow Class ---------- 
                       /Actual         Up    Down  Sub   Sup   Up    Down  Norm  Inlet 
  Conduit               Length    Dry  Dry   Dry   Crit  Crit  Crit  Crit  Ltd   Ctrl  
  -------------------------------------------------------------------------------------
  C1                      1.00   0.25  0.00  0.00  0.00  0.00  0.00  0.75  0.00  0.00
  C2                      1.00   0.00  0.00  0.00  0.83  0.17  0.00  0.00  0.62  0.00
  C3                      1.00   0.00  0.00  0.00  0.98  0.02  0.00  0.00  0.00  0.00
  
  
  *************************
  Conduit Surcharge Summary
  *************************
  
  ----------------------------------------------------------------------------
                                                           Hours        Hours 
                         --------- Hours Full --------   Above Full   Capacity
  Conduit                Both Ends  Upstream  Dnstream   Normal Flow   Limited
  ----------------------------------------------------------------------------
  C2                          4.43      4.49      5.72      1.96         1.88
  C3                          0.01      5.72      0.01      6.41         0.01
  
  
  ********************
  Subcatchment Results
  ********************
  
  <<< Subcatchment S1 >>>
  ---------------------------------------------------
  Date        Time        Precip.    Losses    Runoff
                            in/hr     in/hr       CFS
  ---------------------------------------------------
   02/06/2018 00:15:00      0.000     0.000    0.0000
   02/06/2018 00:30:00      0.000     0.000    0.0000
   02/06/2018 00:45:00      0.000     0.000    0.0000
   02/06/2018 01:00:00      0.000     0.000    0.0000
   02/06/2018 01:15:00      0.000     0.000    0.0000
   02/06/2018 01:30:00      0.000     0.000    0.0000
   02/06/2018 01:45:00      0.000     0.000    0.0000
   02/06/2018 02:00:00      0.000     0.000    0.0000
   02/06/2018 02:15:00      0.000     0.000    0.0000
   02/06/2018 02:30:00      0.000     0.000    0.0000
   02/06/2018 02:45:00      0.000     0.000    0.0000
   02/06/2018 03:00:00      0.000     0.000    0.0000
   02/06/2018 03:15:00      0.000     0.000    0.0000
   02/06/2018 03:30:00      0.000     0.000    0.0000
   02/06/2018 03:45:00      0.000     0.000    0.0000
   02/06/2018 04:00:00      0.250     0.125    0.0000
   02/06/2018 04:15:00      0.250     0.125    0.1912
   02/06/2018 04:30:00      0.250     0.125    1.0842
   02/06/2018 04:45:00      0.250     0.125    2.3486
   02/06/2018 05:00:00      0.500     0.250    3.6614
   02/06/2018 05:15:00      0.500     0.250    7.1546
   02/06/2018 05:30:00      0.500     0.250   10.2508
   02/06/2018 05:45:00      0.500     0.250   12.6421
   02/06/2018 06:00:00      0.400     0.200   14.3490
   02/06/2018 06:15:00      0.400     0.200   14.2683
   02/06/2018 06:30:00      0.400     0.200   14.2158
   02/06/2018 06:45:00      0.400     0.200   14.1816
   02/06/2018 07:00:00      0.250     0.125   14.1593
   02/06/2018 07:15:00      0.250     0.125   12.3546
   02/06/2018 07:30:00      0.250     0.125   11.2045
   02/06/2018 07:45:00      0.250     0.125   10.4498
   02/06/2018 08:00:00      0.125     0.062    9.9442
   02/06/2018 08:15:00      0.125     0.062    8.2903
   02/06/2018 08:30:00      0.125     0.062    7.1918
   02/06/2018 08:45:00      0.125     0.062    6.4374
   02/06/2018 09:00:00      0.000     0.000    5.9057
   02/06/2018 09:15:00      0.000     0.000    4.4510
   02/06/2018 09:30:00      0.000     0.000    3.4525
   02/06/2018 09:45:00      0.000     0.000    2.7415
   02/06/2018 10:00:00      0.000     0.000    2.2198
   02/06/2018 10:15:00      0.000     0.000    1.8271
   02/06/2018 10:30:00      0.000     0.000    1.5253
   02/06/2018 10:45:00      0.000     0.000    1.2888
   02/06/2018 11:00:00      0.000     0.000    1.1007
   02/06/2018 11:15:00      0.000     0.000    0.9489
   02/06/2018 11:30:00      0.000     0.000    0.8249
   02/06/2018 11:45:00      0.000     0.000    0.7224
   02/06/2018 12:00:00      0.000     0.000    0.6369
   02/06/2018 12:15:00      0.000     0.000    0.5649
   02/06/2018 12:30:00      0.000     0.000    0.5038
   02/06/2018 12:45:00      0.000     0.000    0.4516
   02/06/2018 13:00:00      0.000     0.000    0.4066
   02/06/2018 13:15:00      0.000     0.000    0.3677
   02/06/2018 13:30:00      0.000     0.000    0.3338
   02/06/2018 13:45:00      0.000     0.000    0.3041
   02/06/2018 14:00:00      0.000     0.000    0.2780
   02/06/2018 14:15:00      0.000     0.000    0.2549
   02/06/2018 14:30:00      0.000     0.000    0.2345
   02/06/2018 14:45:00      0.000     0.000    0.2162
   02/06/2018 15:00:00      0.000     0.000    0.1999
   02/06/2018 15:15:00      0.000     0.000    0.1852
   02/06/2018 15:30:00      0.000     0.000    0.1720
   02/06/2018 15:45:00      0.000     0.000    0.1601
  
  
  ************
  Node Results
  ************
  
  <<< Node J1 >>>
  ----------------------------------------------------------------
                           Inflow  Flooding     Depth      Head
  Date        Time            CFS       CFS      feet      feet
  ----------------------------------------------------------------
   02/06/2018 00:15:00      0.000     0.000     0.000    96.000
   02/06/2018 00:30:00      0.000     0.000     0.000    96.000
   02/06/2018 00:45:00      0.000     0.000     0.000    96.000
   02/06/2018 01:00:00      0.000     0.000     0.000    96.000
   02/06/2018 01:15:00      0.000     0.000     0.000    96.000
   02/06/2018 01:30:00      0.000     0.000     0.000    96.000
   02/06/2018 01:45:00      0.000     0.000     0.000    96.000
   02/06/2018 02:00:00      0.000     0.000     0.000    96.000
   02/06/2018 02:15:00      0.000     0.000     0.000    96.000
   02/06/2018 02:30:00      0.000     0.000     0.000    96.000
   02/06/2018 02:45:00      0.000     0.000     0.000    96.000
   02/06/2018 03:00:00      0.000     0.000     0.000    96.000
   02/06/2018 03:15:00      0.000     0.000     0.000    96.000
   02/06/2018 03:30:00      0.000     0.000     0.000    96.000
   02/06/2018 03:45:00      0.000     0.000     0.000    96.000
   02/06/2018 04:00:00      0.000     0.000     0.000    96.000
   02/06/2018 04:15:00      0.188     0.000     0.131    96.131
   02/06/2018 04:30:00      1.073     0.000     0.348    96.348
   02/06/2018 04:45:00      2.335     0.000     0.528    96.528
   02/06/2018 05:00:00      3.648     0.000     0.672    96.672
   02/06/2018 05:15:00      7.118     0.000     0.968    96.968
   02/06/2018 05:30:00     10.221     0.000     1.211    97.211
   02/06/2018 05:45:00     12.620     0.000     1.399    97.399
   02/06/2018 06:00:00     14.333     0.000     1.545    97.545
   02/06/2018 06:15:00     14.269     0.000     1.545    97.545
   02/06/2018 06:30:00     14.216     0.000     1.540    97.540
   02/06/2018 06:45:00     14.182     0.000     1.537    97.537
   02/06/2018 07:00:00     14.160     0.000     1.535    97.535
   02/06/2018 07:15:00     12.371     0.000     1.390    97.390
   02/06/2018 07:30:00     11.215     0.000     1.298    97.298
   02/06/2018 07:45:00     10.457     0.000     1.239    97.239
   02/06/2018 08:00:00      9.949     0.000     1.199    97.199
   02/06/2018 08:15:00      8.305     0.000     1.076    97.076
   02/06/2018 08:30:00      7.202     0.000     0.989    96.989
   02/06/2018 08:45:00      6.444     0.000     0.928    96.928
   02/06/2018 09:00:00      5.911     0.000     0.883    96.883
   02/06/2018 09:15:00      4.464     0.000     0.762    96.762
   02/06/2018 09:30:00      3.462     0.000     0.665    96.665
   02/06/2018 09:45:00      2.748     0.000     0.590    96.590
   02/06/2018 10:00:00      2.225     0.000     0.530    96.530
   02/06/2018 10:15:00      1.831     0.000     0.481    96.481
   02/06/2018 10:30:00      1.528     0.000     0.439    96.439
   02/06/2018 10:45:00      1.291     0.000     0.404    96.404
   02/06/2018 11:00:00      1.103     0.000     0.374    96.374
   02/06/2018 11:15:00      0.950     0.000     0.348    96.348
   02/06/2018 11:30:00      0.826     0.000     0.325    96.325
   02/06/2018 11:45:00      0.723     0.000     0.305    96.305
   02/06/2018 12:00:00      0.638     0.000     0.288    96.288
   02/06/2018 12:15:00      0.566     0.000     0.272    96.272
   02/06/2018 12:30:00      0.504     0.000     0.257    96.257
   02/06/2018 12:45:00      0.452     0.000     0.244    96.244
   02/06/2018 13:00:00      0.407     0.000     0.233    96.233
   02/06/2018 13:15:00      0.368     0.000     0.222    96.222
   02/06/2018 13:30:00      0.334     0.000     0.212    96.212
   02/06/2018 13:45:00      0.304     0.000     0.203    96.203
   02/06/2018 14:00:00      0.278     0.000     0.195    96.195
   02/06/2018 14:15:00      0.255     0.000     0.187    96.187
   02/06/2018 14:30:00      0.235     0.000     0.180    96.180
   02/06/2018 14:45:00      0.216     0.000     0.173    96.173
   02/06/2018 15:00:00      0.200     0.000     0.167    96.167
   02/06/2018 15:15:00      0.185     0.000     0.162    96.162
   02/06/2018 15:30:00      0.172     0.000     0.156    96.156
   02/06/2018 15:45:00      0.160     0.000     0.151    96.151
  
  
  <<< Node J2 >>>
  ----------------------------------------------------------------
                           Inflow  Flooding     Depth      Head
  Date        Time            CFS       CFS      feet      feet
  ----------------------------------------------------------------
   02/06/2018 00:15:00      1.266     0.000     0.432    90.432
   02/06/2018 00:30:00      1.186     0.000     0.417    90.417
   02/06/2018 00:45:00      0.636     0.000     0.299    90.299
   02/06/2018 01:00:00      0.853     0.000     0.348    90.348
   02/06/2018 01:15:00      0.378     0.000     0.229    90.229
   02/06/2018 01:30:00      0.375     0.000     0.228    90.228
   02/06/2018 01:45:00      1.003     0.000     0.380    90.380
   02/06/2018 02:00:00      0.920     0.000     0.363    90.363
   02/06/2018 02:15:00      0.884     0.000     0.355    90.355
   02/06/2018 02:30:00      0.830     0.000     0.344    90.344
   02/06/2018 02:45:00      0.336     0.000     0.216    90.216
   02/06/2018 03:00:00      0.768     0.000     0.330    90.330
   02/06/2018 03:15:00      0.691     0.000     0.312    90.312
   02/06/2018 03:30:00      0.000     0.000     0.018    90.018
   02/06/2018 03:45:00      0.131     0.000     0.136    90.136
   02/06/2018 04:00:00      0.668     0.000     0.307    90.307
   02/06/2018 04:15:00      0.128     0.000     0.135    90.135
   02/06/2018 04:30:00      0.313     0.000     0.209    90.209
   02/06/2018 04:45:00      0.733     0.000     0.321    90.321
   02/06/2018 05:00:00      0.000     0.000     0.018    90.018
   02/06/2018 05:15:00      1.264     0.000     0.430    90.430
   02/06/2018 05:30:00      1.527     0.000     0.478    90.478
   02/06/2018 05:45:00      1.840     0.000     0.534    90.534
   02/06/2018 06:00:00      1.812     0.000     0.530    90.530
   02/06/2018 06:15:00      3.015     0.000     0.833    90.833
   02/06/2018 06:30:00      2.733     0.000     0.697    90.697
   02/06/2018 06:45:00      3.165     0.000     1.484    91.484
   02/06/2018 07:00:00      3.089     0.000     1.314    91.314
   02/06/2018 07:15:00      3.334     0.000     1.895    91.895
   02/06/2018 07:30:00      3.318     0.000     1.858    91.858
   02/06/2018 07:45:00      2.980     0.000     0.810    90.810
   02/06/2018 08:00:00      3.032     0.000     0.899    90.899
   02/06/2018 08:15:00      2.992     0.000     1.096    91.096
   02/06/2018 08:30:00      3.260     0.000     1.719    91.719
   02/06/2018 08:45:00      3.043     0.000     1.211    91.211
   02/06/2018 09:00:00      3.456     0.000     2.207    92.207
   02/06/2018 09:15:00      3.073     0.000     1.279    91.279
   02/06/2018 09:30:00      3.476     0.000     2.253    92.253
   02/06/2018 09:45:00      2.598     0.000     0.672    90.672
   02/06/2018 10:00:00      3.472     0.000     2.247    92.247
   02/06/2018 10:15:00      0.000     0.000     0.021    90.021
   02/06/2018 10:30:00      0.392     0.000     0.234    90.234
   02/06/2018 10:45:00      1.811     0.000     0.531    90.531
   02/06/2018 11:00:00      0.392     0.000     0.234    90.234
   02/06/2018 11:15:00      3.327     0.000     1.884    91.884
   02/06/2018 11:30:00      1.795     0.000     0.528    90.528
   02/06/2018 11:45:00      1.789     0.000     0.527    90.527
   02/06/2018 12:00:00      3.056     0.000     1.241    91.241
   02/06/2018 12:15:00      0.000     0.000     0.021    90.021
   02/06/2018 12:30:00      1.024     0.000     0.384    90.384
   02/06/2018 12:45:00      0.384     0.000     0.231    90.231
   02/06/2018 13:00:00      2.544     0.000     0.662    90.662
   02/06/2018 13:15:00      3.267     0.000     1.738    91.738
   02/06/2018 13:30:00      3.010     0.000     1.139    91.139
   02/06/2018 13:45:00      2.994     0.000     1.103    91.103
   02/06/2018 14:00:00      1.697     0.000     0.511    90.511
   02/06/2018 14:15:00      1.688     0.000     0.509    90.509
   02/06/2018 14:30:00      3.193     0.000     1.559    91.559
   02/06/2018 14:45:00      2.383     0.000     0.633    90.633
   02/06/2018 15:00:00      0.000     0.000     0.020    90.020
   02/06/2018 15:15:00      0.000     0.000     0.007    90.007
   02/06/2018 15:30:00      0.000     0.000     0.003    90.003
   02/06/2018 15:45:00      3.306     0.000     1.833    91.833
  
  
  <<< Node J3 >>>
  ----------------------------------------------------------------
                           Inflow  Flooding     Depth      Head
  Date        Time            CFS       CFS      feet      feet
  ----------------------------------------------------------------
   02/06/2018 00:15:00      1.270     0.000     0.539    88.539
   02/06/2018 00:30:00      1.190     0.000     0.518    88.518
   02/06/2018 00:45:00      0.637     0.000     0.364    88.364
   02/06/2018 01:00:00      0.854     0.000     0.427    88.427
   02/06/2018 01:15:00      0.378     0.000     0.278    88.278
   02/06/2018 01:30:00      0.375     0.000     0.276    88.276
   02/06/2018 01:45:00      1.006     0.000     0.469    88.469
   02/06/2018 02:00:00      0.923     0.000     0.447    88.447
   02/06/2018 02:15:00      0.887     0.000     0.437    88.437
   02/06/2018 02:30:00      0.833     0.000     0.422    88.422
   02/06/2018 02:45:00      0.337     0.000     0.262    88.262
   02/06/2018 03:00:00      0.770     0.000     0.404    88.404
   02/06/2018 03:15:00      0.692     0.000     0.380    88.380
   02/06/2018 03:30:00      0.002     0.000     0.062    88.062
   02/06/2018 03:45:00      0.131     0.000     0.164    88.164
   02/06/2018 04:00:00      0.669     0.000     0.374    88.374
   02/06/2018 04:15:00      0.128     0.000     0.165    88.165
   02/06/2018 04:30:00      0.313     0.000     0.252    88.252
   02/06/2018 04:45:00      0.729     0.000     0.388    88.388
   02/06/2018 05:00:00      0.002     0.000     0.062    88.062
   02/06/2018 05:15:00      1.254     0.000     0.523    88.523
   02/06/2018 05:30:00      1.514     0.000     0.592    88.592
   02/06/2018 05:45:00      1.827     0.000     0.675    88.675
   02/06/2018 06:00:00      1.801     0.000     0.669    88.669
   02/06/2018 06:15:00      2.986     0.000     1.424    89.424
   02/06/2018 06:30:00      2.723     0.000     1.143    89.143
   02/06/2018 06:45:00      3.160     0.000     1.620    89.620
   02/06/2018 07:00:00      3.086     0.000     1.536    89.536
   02/06/2018 07:15:00      3.330     0.000     1.825    89.825
   02/06/2018 07:30:00      3.315     0.000     1.807    89.807
   02/06/2018 07:45:00      2.968     0.000     1.403    89.403
   02/06/2018 08:00:00      3.016     0.000     1.456    89.456
   02/06/2018 08:15:00      2.990     0.000     1.428    89.428
   02/06/2018 08:30:00      3.259     0.000     1.738    89.738
   02/06/2018 08:45:00      3.042     0.000     1.485    89.485
   02/06/2018 09:00:00      3.455     0.000     1.980    89.980
   02/06/2018 09:15:00      3.072     0.000     1.519    89.519
   02/06/2018 09:30:00      3.476     0.005     2.000    90.000
   02/06/2018 09:45:00      2.598     0.000     1.019    89.019
   02/06/2018 10:00:00      3.472     0.001     2.000    90.000
   02/06/2018 10:15:00      0.002     0.000     0.073    88.073
   02/06/2018 10:30:00      0.392     0.000     0.282    88.282
   02/06/2018 10:45:00      1.811     0.000     0.679    88.679
   02/06/2018 11:00:00      0.392     0.000     0.283    88.283
   02/06/2018 11:15:00      3.327     0.000     1.820    89.820
   02/06/2018 11:30:00      1.796     0.000     0.675    88.675
   02/06/2018 11:45:00      1.789     0.000     0.673    88.673
   02/06/2018 12:00:00      3.056     0.000     1.500    89.500
   02/06/2018 12:15:00      0.002     0.000     0.073    88.073
   02/06/2018 12:30:00      1.024     0.000     0.472    88.472
   02/06/2018 12:45:00      0.384     0.000     0.280    88.280
   02/06/2018 13:00:00      2.544     0.000     0.952    88.952
   02/06/2018 13:15:00      3.268     0.000     1.747    89.747
   02/06/2018 13:30:00      3.011     0.000     1.449    89.449
   02/06/2018 13:45:00      2.994     0.000     1.431    89.431
   02/06/2018 14:00:00      1.698     0.000     0.649    88.649
   02/06/2018 14:15:00      1.688     0.000     0.646    88.646
   02/06/2018 14:30:00      3.193     0.000     1.658    89.658
   02/06/2018 14:45:00      2.384     0.000     0.869    88.869
   02/06/2018 15:00:00      0.002     0.000     0.069    88.069
   02/06/2018 15:15:00      0.000     0.000     0.031    88.031
   02/06/2018 15:30:00      0.000     0.000     0.019    88.019
   02/06/2018 15:45:00      3.307     0.000     1.795    89.795
  
  
  <<< Node Out1 >>>
  ----------------------------------------------------------------
                           Inflow  Flooding     Depth      Head
  Date        Time            CFS       CFS      feet      feet
  ----------------------------------------------------------------
   02/06/2018 00:15:00      1.280     0.000     0.478    87.478
   02/06/2018 00:30:00      1.199     0.000     0.461    87.461
   02/06/2018 00:45:00      0.638     0.000     0.332    87.332
   02/06/2018 01:00:00      0.856     0.000     0.387    87.387
   02/06/2018 01:15:00      0.379     0.000     0.254    87.254
   02/06/2018 01:30:00      0.375     0.000     0.252    87.252
   02/06/2018 01:45:00      1.014     0.000     0.422    87.422
   02/06/2018 02:00:00      0.930     0.000     0.404    87.404
   02/06/2018 02:15:00      0.893     0.000     0.396    87.396
   02/06/2018 02:30:00      0.839     0.000     0.383    87.383
   02/06/2018 02:45:00      0.337     0.000     0.240    87.240
   02/06/2018 03:00:00      0.775     0.000     0.367    87.367
   02/06/2018 03:15:00      0.694     0.000     0.347    87.347
   02/06/2018 03:30:00      0.016     0.000     0.048    87.048
   02/06/2018 03:45:00      0.129     0.000     0.145    87.145
   02/06/2018 04:00:00      0.671     0.000     0.341    87.341
   02/06/2018 04:15:00      0.130     0.000     0.146    87.146
   02/06/2018 04:30:00      0.312     0.000     0.230    87.230
   02/06/2018 04:45:00      0.719     0.000     0.353    87.353
   02/06/2018 05:00:00      0.016     0.000     0.048    87.048
   02/06/2018 05:15:00      1.206     0.000     0.463    87.463
   02/06/2018 05:30:00      1.480     0.000     0.515    87.515
   02/06/2018 05:45:00      1.788     0.000     0.569    87.569
   02/06/2018 06:00:00      1.768     0.000     0.566    87.566
   02/06/2018 06:15:00      2.984     0.000     0.740    87.740
   02/06/2018 06:30:00      2.717     0.000     0.706    87.706
   02/06/2018 06:45:00      3.159     0.000     0.761    87.761
   02/06/2018 07:00:00      3.086     0.000     0.753    87.753
   02/06/2018 07:15:00      3.330     0.000     0.780    87.780
   02/06/2018 07:30:00      3.315     0.000     0.779    87.779
   02/06/2018 07:45:00      2.967     0.000     0.738    87.738
   02/06/2018 08:00:00      3.016     0.000     0.744    87.744
   02/06/2018 08:15:00      2.990     0.000     0.741    87.741
   02/06/2018 08:30:00      3.259     0.000     0.772    87.772
   02/06/2018 08:45:00      3.042     0.000     0.747    87.747
   02/06/2018 09:00:00      3.455     0.000     0.794    87.794
   02/06/2018 09:15:00      3.072     0.000     0.751    87.751
   02/06/2018 09:30:00      3.471     0.000     0.796    87.796
   02/06/2018 09:45:00      2.598     0.000     0.690    87.690
   02/06/2018 10:00:00      3.471     0.000     0.796    87.796
   02/06/2018 10:15:00      0.023     0.000     0.058    87.058
   02/06/2018 10:30:00      0.391     0.000     0.258    87.258
   02/06/2018 10:45:00      1.811     0.000     0.573    87.573
   02/06/2018 11:00:00      0.393     0.000     0.258    87.258
   02/06/2018 11:15:00      3.327     0.000     0.780    87.780
   02/06/2018 11:30:00      1.796     0.000     0.570    87.570
   02/06/2018 11:45:00      1.790     0.000     0.569    87.569
   02/06/2018 12:00:00      3.056     0.000     0.749    87.749
   02/06/2018 12:15:00      0.022     0.000     0.057    87.057
   02/06/2018 12:30:00      1.024     0.000     0.425    87.425
   02/06/2018 12:45:00      0.384     0.000     0.255    87.255
   02/06/2018 13:00:00      2.545     0.000     0.683    87.683
   02/06/2018 13:15:00      3.268     0.000     0.773    87.773
   02/06/2018 13:30:00      3.011     0.000     0.743    87.743
   02/06/2018 13:45:00      2.994     0.000     0.741    87.741
   02/06/2018 14:00:00      1.699     0.000     0.554    87.554
   02/06/2018 14:15:00      1.689     0.000     0.552    87.552
   02/06/2018 14:30:00      3.193     0.000     0.765    87.765
   02/06/2018 14:45:00      2.389     0.000     0.661    87.661
   02/06/2018 15:00:00      0.020     0.000     0.054    87.054
   02/06/2018 15:15:00      0.003     0.000     0.013    87.013
   02/06/2018 15:30:00      0.001     0.000     0.004    87.004
   02/06/2018 15:45:00      3.307     0.000     0.778    87.778
  
  
  <<< Node St1 >>>
  ----------------------------------------------------------------
                           Inflow  Flooding     Depth      Head
  Date        Time            CFS       CFS      feet      feet
  ----------------------------------------------------------------
   02/06/2018 00:15:00      0.000     0.000     0.720    90.720
   02/06/2018 00:30:00      0.000     0.000     0.692    90.692
   02/06/2018 00:45:00      0.000     0.000     0.678    90.678
   02/06/2018 01:00:00      0.000     0.000     0.658    90.658
   02/06/2018 01:15:00      0.000     0.000     0.650    90.650
   02/06/2018 01:30:00      0.000     0.000     0.641    90.641
   02/06/2018 01:45:00      0.000     0.000     0.618    90.618
   02/06/2018 02:00:00      0.000     0.000     0.597    90.597
   02/06/2018 02:15:00      0.000     0.000     0.576    90.576
   02/06/2018 02:30:00      0.000     0.000     0.557    90.557
   02/06/2018 02:45:00      0.000     0.000     0.549    90.549
   02/06/2018 03:00:00      0.000     0.000     0.531    90.531
   02/06/2018 03:15:00      0.000     0.000     0.516    90.516
   02/06/2018 03:30:00      0.000     0.000     0.515    90.515
   02/06/2018 03:45:00      0.000     0.000     0.512    90.512
   02/06/2018 04:00:00      0.000     0.000     0.497    90.497
   02/06/2018 04:15:00      0.113     0.000     0.495    90.495
   02/06/2018 04:30:00      0.937     0.000     0.498    90.498
   02/06/2018 04:45:00      2.207     0.000     0.517    90.517
   02/06/2018 05:00:00      3.538     0.000     0.582    90.582
   02/06/2018 05:15:00      6.867     0.000     0.673    90.673
   02/06/2018 05:30:00     10.024     0.000     0.833    90.833
   02/06/2018 05:45:00     12.474     0.000     1.049    91.049
   02/06/2018 06:00:00     14.228     0.000     1.313    91.313
   02/06/2018 06:15:00     14.274     0.000     1.570    91.570
   02/06/2018 06:30:00     14.219     0.000     1.832    91.832
   02/06/2018 06:45:00     14.184     0.000     2.080    92.080
   02/06/2018 07:00:00     14.161     0.000     2.331    92.331
   02/06/2018 07:15:00     12.475     0.000     2.557    92.557
   02/06/2018 07:30:00     11.281     0.000     2.749    92.749
   02/06/2018 07:45:00     10.501     0.000     2.928    92.928
   02/06/2018 08:00:00      9.979     0.000     3.090    93.090
   02/06/2018 08:15:00      8.405     0.000     3.229    93.229
   02/06/2018 08:30:00      7.270     0.000     3.332    93.332
   02/06/2018 08:45:00      6.493     0.000     3.418    93.418
   02/06/2018 09:00:00      5.946     0.000     3.480    93.480
   02/06/2018 09:15:00      4.565     0.000     3.529    93.529
   02/06/2018 09:30:00      3.536     0.000     3.542    93.542
   02/06/2018 09:45:00      2.805     0.000     3.554    93.554
   02/06/2018 10:00:00      2.269     0.000     3.532    93.532
   02/06/2018 10:15:00      1.866     0.000     3.577    93.577
   02/06/2018 10:30:00      1.557     0.000     3.607    93.607
   02/06/2018 10:45:00      1.315     0.000     3.599    93.599
   02/06/2018 11:00:00      1.122     0.000     3.617    93.617
   02/06/2018 11:15:00      0.968     0.000     3.564    93.564
   02/06/2018 11:30:00      0.840     0.000     3.544    93.544
   02/06/2018 11:45:00      0.736     0.000     3.521    93.521
   02/06/2018 12:00:00      0.648     0.000     3.467    93.467
   02/06/2018 12:15:00      0.575     0.000     3.480    93.480
   02/06/2018 12:30:00      0.513     0.000     3.469    93.469
   02/06/2018 12:45:00      0.459     0.000     3.471    93.471
   02/06/2018 13:00:00      0.414     0.000     3.424    93.424
   02/06/2018 13:15:00      0.374     0.000     3.359    93.359
   02/06/2018 13:30:00      0.339     0.000     3.299    93.299
   02/06/2018 13:45:00      0.309     0.000     3.238    93.238
   02/06/2018 14:00:00      0.283     0.000     3.207    93.207
   02/06/2018 14:15:00      0.259     0.000     3.175    93.175
   02/06/2018 14:30:00      0.238     0.000     3.107    93.107
   02/06/2018 14:45:00      0.220     0.000     3.058    93.058
   02/06/2018 15:00:00      0.203     0.000     3.062    93.062
   02/06/2018 15:15:00      0.188     0.000     3.067    93.067
   02/06/2018 15:30:00      0.175     0.000     3.071    93.071
   02/06/2018 15:45:00      0.163     0.000     2.998    92.998
  
  
  ************
  Link Results
  ************
  
  <<< Link C1 >>>
  ----------------------------------------------------------------
                             Flow  Velocity     Depth  Capacity/
  Date        Time            CFS    ft/sec      feet   Setting 
  ----------------------------------------------------------------
   02/06/2018 00:15:00      0.000     0.000     0.000     0.000
   02/06/2018 00:30:00      0.000     0.000     0.000     0.000
   02/06/2018 00:45:00      0.000     0.000     0.000     0.000
   02/06/2018 01:00:00      0.000     0.000     0.000     0.000
   02/06/2018 01:15:00      0.000     0.000     0.000     0.000
   02/06/2018 01:30:00      0.000     0.000     0.000     0.000
   02/06/2018 01:45:00      0.000     0.000     0.000     0.000
   02/06/2018 02:00:00      0.000     0.000     0.000     0.000
   02/06/2018 02:15:00      0.000     0.000     0.000     0.000
   02/06/2018 02:30:00      0.000     0.000     0.000     0.000
   02/06/2018 02:45:00      0.000     0.000     0.000     0.000
   02/06/2018 03:00:00      0.000     0.000     0.000     0.000
   02/06/2018 03:15:00      0.000     0.000     0.000     0.000
   02/06/2018 03:30:00      0.000     0.000     0.000     0.000
   02/06/2018 03:45:00      0.000     0.000     0.000     0.000
   02/06/2018 04:00:00      0.000     0.000     0.000     0.000
   02/06/2018 04:15:00      0.113     1.483     0.120     0.024
   02/06/2018 04:30:00      0.937     2.647     0.340     0.113
   02/06/2018 04:45:00      2.207     3.386     0.521     0.207
   02/06/2018 05:00:00      3.538     3.875     0.665     0.291
   02/06/2018 05:15:00      6.867     4.680     0.948     0.467
   02/06/2018 05:30:00     10.024     5.242     1.172     0.609
   02/06/2018 05:45:00     12.474     5.603     1.334     0.709
   02/06/2018 06:00:00     14.228     5.826     1.452     0.777
   02/06/2018 06:15:00     14.274     5.839     1.453     0.778
   02/06/2018 06:30:00     14.219     5.833     1.449     0.776
   02/06/2018 06:45:00     14.184     5.829     1.447     0.775
   02/06/2018 07:00:00     14.161     5.826     1.445     0.774
   02/06/2018 07:15:00     12.475     5.624     1.330     0.706
   02/06/2018 07:30:00     11.281     5.454     1.252     0.658
   02/06/2018 07:45:00     10.501     5.338     1.200     0.626
   02/06/2018 08:00:00      9.979     5.257     1.165     0.604
   02/06/2018 08:15:00      8.405     5.002     1.055     0.535
   02/06/2018 08:30:00      7.270     4.791     0.973     0.483
   02/06/2018 08:45:00      6.493     4.636     0.915     0.446
   02/06/2018 09:00:00      5.946     4.518     0.872     0.419
   02/06/2018 09:15:00      4.565     4.197     0.756     0.346
   02/06/2018 09:30:00      3.536     3.899     0.661     0.289
   02/06/2018 09:45:00      2.805     3.650     0.587     0.245
   02/06/2018 10:00:00      2.269     3.438     0.526     0.210
   02/06/2018 10:15:00      1.866     3.249     0.477     0.183
   02/06/2018 10:30:00      1.557     3.090     0.435     0.160
   02/06/2018 10:45:00      1.315     2.941     0.400     0.142
   02/06/2018 11:00:00      1.122     2.819     0.369     0.127
   02/06/2018 11:15:00      0.968     2.699     0.343     0.114
   02/06/2018 11:30:00      0.840     2.590     0.320     0.103
   02/06/2018 11:45:00      0.736     2.501     0.299     0.094
   02/06/2018 12:00:00      0.648     2.418     0.281     0.085
   02/06/2018 12:15:00      0.575     2.330     0.265     0.079
   02/06/2018 12:30:00      0.513     2.248     0.251     0.073
   02/06/2018 12:45:00      0.459     2.183     0.237     0.067
   02/06/2018 13:00:00      0.414     2.124     0.225     0.062
   02/06/2018 13:15:00      0.374     2.069     0.214     0.058
   02/06/2018 13:30:00      0.339     2.016     0.204     0.054
   02/06/2018 13:45:00      0.309     1.961     0.195     0.050
   02/06/2018 14:00:00      0.283     1.906     0.187     0.047
   02/06/2018 14:15:00      0.259     1.854     0.179     0.044
   02/06/2018 14:30:00      0.238     1.805     0.173     0.042
   02/06/2018 14:45:00      0.220     1.758     0.167     0.040
   02/06/2018 15:00:00      0.203     1.733     0.160     0.037
   02/06/2018 15:15:00      0.188     1.700     0.153     0.035
   02/06/2018 15:30:00      0.175     1.670     0.147     0.033
   02/06/2018 15:45:00      0.163     1.642     0.142     0.032
  
  
  <<< Link C2 >>>
  ----------------------------------------------------------------
                             Flow  Velocity     Depth  Capacity/
  Date        Time            CFS    ft/sec      feet   Setting 
  ----------------------------------------------------------------
   02/06/2018 00:15:00      1.270     3.359     0.485     0.481
   02/06/2018 00:30:00      1.190     3.306     0.467     0.458
   02/06/2018 00:45:00      0.637     2.802     0.331     0.289
   02/06/2018 01:00:00      0.854     3.036     0.387     0.358
   02/06/2018 01:15:00      0.378     2.413     0.254     0.200
   02/06/2018 01:30:00      0.375     2.407     0.252     0.198
   02/06/2018 01:45:00      1.006     3.165     0.425     0.405
   02/06/2018 02:00:00      0.923     3.095     0.405     0.380
   02/06/2018 02:15:00      0.887     3.063     0.396     0.369
   02/06/2018 02:30:00      0.833     3.012     0.383     0.352
   02/06/2018 02:45:00      0.337     2.333     0.239     0.184
   02/06/2018 03:00:00      0.770     2.947     0.367     0.333
   02/06/2018 03:15:00      0.692     2.865     0.346     0.307
   02/06/2018 03:30:00      0.002     0.171     0.040     0.013
   02/06/2018 03:45:00      0.131     1.764     0.150     0.094
   02/06/2018 04:00:00      0.669     2.840     0.340     0.300
   02/06/2018 04:15:00      0.128     1.733     0.150     0.094
   02/06/2018 04:30:00      0.313     2.287     0.230     0.174
   02/06/2018 04:45:00      0.729     2.922     0.354     0.317
   02/06/2018 05:00:00      0.002     0.172     0.040     0.014
   02/06/2018 05:15:00      1.254     3.401     0.476     0.470
   02/06/2018 05:30:00      1.514     3.538     0.535     0.545
   02/06/2018 05:45:00      1.827     3.681     0.604     0.632
   02/06/2018 06:00:00      1.801     3.666     0.599     0.625
   02/06/2018 06:15:00      2.986     3.961     0.916     0.960
   02/06/2018 06:30:00      2.723     3.834     0.848     0.904
   02/06/2018 06:45:00      3.160     4.023     1.000     1.000
   02/06/2018 07:00:00      3.086     3.929     1.000     1.000
   02/06/2018 07:15:00      3.330     4.240     1.000     1.000
   02/06/2018 07:30:00      3.315     4.221     1.000     1.000
   02/06/2018 07:45:00      2.968     3.971     0.905     0.952
   02/06/2018 08:00:00      3.016     3.915     0.950     0.981
   02/06/2018 08:15:00      2.990     3.807     1.000     1.000
   02/06/2018 08:30:00      3.259     4.149     1.000     1.000
   02/06/2018 08:45:00      3.042     3.873     1.000     1.000
   02/06/2018 09:00:00      3.455     4.399     1.000     1.000
   02/06/2018 09:15:00      3.072     3.912     1.000     1.000
   02/06/2018 09:30:00      3.476     4.426     1.000     1.000
   02/06/2018 09:45:00      2.598     3.704     0.836     0.893
   02/06/2018 10:00:00      3.472     4.421     1.000     1.000
   02/06/2018 10:15:00      0.002     0.177     0.047     0.017
   02/06/2018 10:30:00      0.392     2.442     0.258     0.204
   02/06/2018 10:45:00      1.811     3.645     0.605     0.633
   02/06/2018 11:00:00      0.392     2.440     0.258     0.205
   02/06/2018 11:15:00      3.327     4.236     1.000     1.000
   02/06/2018 11:30:00      1.796     3.638     0.602     0.628
   02/06/2018 11:45:00      1.789     3.636     0.600     0.627
   02/06/2018 12:00:00      3.056     3.891     1.000     1.000
   02/06/2018 12:15:00      0.002     0.175     0.047     0.017
   02/06/2018 12:30:00      1.024     3.188     0.428     0.409
   02/06/2018 12:45:00      0.384     2.425     0.255     0.202
   02/06/2018 13:00:00      2.544     3.746     0.807     0.865
   02/06/2018 13:15:00      3.268     4.160     1.000     1.000
   02/06/2018 13:30:00      3.011     3.833     1.000     1.000
   02/06/2018 13:45:00      2.994     3.812     1.000     1.000
   02/06/2018 14:00:00      1.698     3.597     0.580     0.601
   02/06/2018 14:15:00      1.688     3.593     0.578     0.598
   02/06/2018 14:30:00      3.193     4.066     1.000     1.000
   02/06/2018 14:45:00      2.384     3.767     0.751     0.806
   02/06/2018 15:00:00      0.002     0.171     0.044     0.016
   02/06/2018 15:15:00      0.000     0.104     0.019     0.004
   02/06/2018 15:30:00      0.000     0.063     0.011     0.002
   02/06/2018 15:45:00      3.307     4.210     1.000     1.000
  
  
  <<< Link C3 >>>
  ----------------------------------------------------------------
                             Flow  Velocity     Depth  Capacity/
  Date        Time            CFS    ft/sec      feet   Setting 
  ----------------------------------------------------------------
   02/06/2018 00:15:00      1.280     3.193     0.508     0.510
   02/06/2018 00:30:00      1.199     3.137     0.490     0.487
   02/06/2018 00:45:00      0.638     2.627     0.348     0.309
   02/06/2018 01:00:00      0.856     2.853     0.407     0.382
   02/06/2018 01:15:00      0.379     2.265     0.266     0.213
   02/06/2018 01:30:00      0.375     2.259     0.264     0.212
   02/06/2018 01:45:00      1.014     2.994     0.446     0.431
   02/06/2018 02:00:00      0.930     2.920     0.425     0.405
   02/06/2018 02:15:00      0.893     2.887     0.416     0.394
   02/06/2018 02:30:00      0.839     2.839     0.402     0.376
   02/06/2018 02:45:00      0.337     2.188     0.251     0.196
   02/06/2018 03:00:00      0.775     2.775     0.386     0.356
   02/06/2018 03:15:00      0.694     2.690     0.364     0.329
   02/06/2018 03:30:00      0.016     0.920     0.055     0.022
   02/06/2018 03:45:00      0.129     1.666     0.155     0.099
   02/06/2018 04:00:00      0.671     2.665     0.357     0.321
   02/06/2018 04:15:00      0.130     1.672     0.155     0.099
   02/06/2018 04:30:00      0.312     2.143     0.241     0.185
   02/06/2018 04:45:00      0.719     2.713     0.371     0.337
   02/06/2018 05:00:00      0.016     0.923     0.055     0.022
   02/06/2018 05:15:00      1.206     3.130     0.493     0.491
   02/06/2018 05:30:00      1.480     3.315     0.554     0.568
   02/06/2018 05:45:00      1.788     3.485     0.622     0.653
   02/06/2018 06:00:00      1.768     3.476     0.617     0.648
   02/06/2018 06:15:00      2.984     4.114     0.870     0.924
   02/06/2018 06:30:00      2.717     3.807     0.853     0.909
   02/06/2018 06:45:00      3.159     4.313     0.881     0.933
   02/06/2018 07:00:00      3.086     4.230     0.876     0.929
   02/06/2018 07:15:00      3.330     4.510     0.890     0.940
   02/06/2018 07:30:00      3.315     4.493     0.889     0.939
   02/06/2018 07:45:00      2.967     4.095     0.869     0.923
   02/06/2018 08:00:00      3.016     4.150     0.872     0.925
   02/06/2018 08:15:00      2.990     4.121     0.870     0.924
   02/06/2018 08:30:00      3.259     4.428     0.886     0.937
   02/06/2018 08:45:00      3.042     4.180     0.874     0.927
   02/06/2018 09:00:00      3.455     4.652     0.897     0.946
   02/06/2018 09:15:00      3.072     4.215     0.875     0.928
   02/06/2018 09:30:00      3.471     4.670     0.898     0.946
   02/06/2018 09:45:00      2.598     3.669     0.845     0.901
   02/06/2018 10:00:00      3.471     4.670     0.898     0.946
   02/06/2018 10:15:00      0.023     1.035     0.066     0.028
   02/06/2018 10:30:00      0.391     2.285     0.270     0.218
   02/06/2018 10:45:00      1.811     3.503     0.626     0.658
   02/06/2018 11:00:00      0.393     2.288     0.271     0.219
   02/06/2018 11:15:00      3.327     4.507     0.890     0.940
   02/06/2018 11:30:00      1.796     3.495     0.623     0.654
   02/06/2018 11:45:00      1.790     3.492     0.621     0.653
   02/06/2018 12:00:00      3.056     4.196     0.874     0.927
   02/06/2018 12:15:00      0.022     1.028     0.065     0.028
   02/06/2018 12:30:00      1.024     3.001     0.449     0.435
   02/06/2018 12:45:00      0.384     2.274     0.268     0.215
   02/06/2018 13:00:00      2.545     3.702     0.818     0.875
   02/06/2018 13:15:00      3.268     4.439     0.887     0.937
   02/06/2018 13:30:00      3.011     4.145     0.872     0.925
   02/06/2018 13:45:00      2.994     4.126     0.871     0.924
   02/06/2018 14:00:00      1.699     3.445     0.601     0.628
   02/06/2018 14:15:00      1.689     3.440     0.599     0.625
   02/06/2018 14:30:00      3.193     4.353     0.883     0.934
   02/06/2018 14:45:00      2.389     3.704     0.765     0.821
   02/06/2018 15:00:00      0.020     0.999     0.062     0.026
   02/06/2018 15:15:00      0.003     0.730     0.022     0.005
   02/06/2018 15:30:00      0.001     0.571     0.012     0.002
   02/06/2018 15:45:00      3.307     4.483     0.889     0.939
  
  
  <<< Link R1 >>>
  ----------------------------------------------------------------
                             Flow  Velocity     Depth  Capacity/
  Date        Time            CFS    ft/sec      feet   Setting 
  ----------------------------------------------------------------
   02/06/2018 00:15:00      1.266     0.000     1.000     1.000
   02/06/2018 00:30:00      1.186     0.000     1.000     1.000
   02/06/2018 00:45:00      0.636     0.000     0.300     0.300
   02/06/2018 01:00:00      0.853     0.000     0.400     0.400
   02/06/2018 01:15:00      0.378     0.000     0.200     0.200
   02/06/2018 01:30:00      0.375     0.000     0.200     0.200
   02/06/2018 01:45:00      1.003     0.000     0.700     0.700
   02/06/2018 02:00:00      0.920     0.000     1.000     1.000
   02/06/2018 02:15:00      0.884     0.000     0.900     0.900
   02/06/2018 02:30:00      0.830     0.000     0.600     0.600
   02/06/2018 02:45:00      0.336     0.000     0.200     0.200
   02/06/2018 03:00:00      0.768     0.000     0.900     0.900
   02/06/2018 03:15:00      0.691     0.000     0.400     0.400
   02/06/2018 03:30:00      0.000     0.000     0.400     0.000
   02/06/2018 03:45:00      0.131     0.000     0.100     0.100
   02/06/2018 04:00:00      0.668     0.000     0.400     0.400
   02/06/2018 04:15:00      0.128     0.000     0.100     0.100
   02/06/2018 04:30:00      0.313     0.000     0.200     0.200
   02/06/2018 04:45:00      0.733     0.000     0.600     0.600
   02/06/2018 05:00:00      0.000     0.000     0.600     0.000
   02/06/2018 05:15:00      1.264     0.000     0.600     0.600
   02/06/2018 05:30:00      1.527     0.000     0.600     0.600
   02/06/2018 05:45:00      1.840     0.000     0.600     0.600
   02/06/2018 06:00:00      1.812     0.000     0.500     0.500
   02/06/2018 06:15:00      3.015     0.000     0.800     0.800
   02/06/2018 06:30:00      2.733     0.000     0.600     0.600
   02/06/2018 06:45:00      3.165     0.000     1.000     1.000
   02/06/2018 07:00:00      3.089     0.000     0.700     0.700
   02/06/2018 07:15:00      3.334     0.000     1.000     1.000
   02/06/2018 07:30:00      3.318     0.000     0.800     0.800
   02/06/2018 07:45:00      2.980     0.000     0.500     0.500
   02/06/2018 08:00:00      3.032     0.000     0.500     0.500
   02/06/2018 08:15:00      2.992     0.000     0.500     0.500
   02/06/2018 08:30:00      3.260     0.000     0.600     0.600
   02/06/2018 08:45:00      3.043     0.000     0.500     0.500
   02/06/2018 09:00:00      3.456     0.000     0.700     0.700
   02/06/2018 09:15:00      3.073     0.000     0.500     0.500
   02/06/2018 09:30:00      3.476     0.000     0.700     0.700
   02/06/2018 09:45:00      2.598     0.000     0.400     0.400
   02/06/2018 10:00:00      3.472     0.000     0.700     0.700
   02/06/2018 10:15:00      0.000     0.000     0.700     0.000
   02/06/2018 10:30:00      0.392     0.000     0.100     0.100
   02/06/2018 10:45:00      1.811     0.000     0.300     0.300
   02/06/2018 11:00:00      0.392     0.000     0.100     0.100
   02/06/2018 11:15:00      3.327     0.000     0.600     0.600
   02/06/2018 11:30:00      1.795     0.000     0.300     0.300
   02/06/2018 11:45:00      1.789     0.000     0.300     0.300
   02/06/2018 12:00:00      3.056     0.000     0.500     0.500
   02/06/2018 12:15:00      0.000     0.000     0.500     0.000
   02/06/2018 12:30:00      1.024     0.000     0.200     0.200
   02/06/2018 12:45:00      0.384     0.000     0.100     0.100
   02/06/2018 13:00:00      2.544     0.000     0.400     0.400
   02/06/2018 13:15:00      3.267     0.000     0.600     0.600
   02/06/2018 13:30:00      3.010     0.000     0.500     0.500
   02/06/2018 13:45:00      2.994     0.000     0.500     0.500
   02/06/2018 14:00:00      1.697     0.000     0.300     0.300
   02/06/2018 14:15:00      1.688     0.000     0.300     0.300
   02/06/2018 14:30:00      3.193     0.000     0.600     0.600
   02/06/2018 14:45:00      2.383     0.000     0.400     0.400
   02/06/2018 15:00:00      0.000     0.000     0.400     0.000
   02/06/2018 15:15:00      0.000     0.000     0.400     0.000
   02/06/2018 15:30:00      0.000     0.000     0.400     0.000
   02/06/2018 15:45:00      3.306     0.000     0.700     0.700
  

  Analysis begun on:  Tue Apr 24 13:03:49 2018
  Analysis ended on:  Tue Apr 24 13:03:49 2018
  Total elapsed time: < 1 sec